<?xml version="1.0" encoding="UTF-8"?>

<!-- generated on 03/29/21 11:24:29 by Eclipse SUMO duarouter Version 1.8.0
<configuration xmlns:xsi="http://www.w3.org/2001/XMLSchema-instance" xsi:noNamespaceSchemaLocation="http://sumo.dlr.de/xsd/duarouterConfiguration.xsd">

    <input>
        <net-file value="city2.net.xml"/>
        <route-files value="trips.trips.xml"/>
    </input>

    <output>
        <output-file value="city2.rou.xml"/>
        <alternatives-output value="city2.rou.alt.xml"/>
    </output>

    <time>
        <begin value="0"/>
        <end value="500"/>
    </time>

    <report>
        <no-warnings value="true"/>
        <ignore-errors value="true"/>
        <no-step-log value="true"/>
    </report>

</configuration>
-->

<routes xmlns:xsi="http://www.w3.org/2001/XMLSchema-instance" xsi:noNamespaceSchemaLocation="http://sumo.dlr.de/xsd/routes_file.xsd">
    <vehicle id="6" depart="6.00">
        <route edges="-gneE11 -gneE10 gneE3 -gneE2 -gneE26 -gneE25"/>
    </vehicle>
    <vehicle id="7" depart="7.00">
        <route edges="gneE22 gneE23 gneE24 gneE2 -gneE3 gneE10 gneE11 gneE12"/>
    </vehicle>
    <vehicle id="13" depart="13.00">
        <route edges="-gneE15"/>
    </vehicle>
    <vehicle id="16" depart="16.00">
        <route edges="gneE12 -gneE6 gneE8"/>
    </vehicle>
    <vehicle id="22" depart="22.00">
        <route edges="-gneE14 gneE13 gneE4 gneE5 -gneE29"/>
    </vehicle>
    <vehicle id="27" depart="27.00">
        <route edges="gneE22 gneE23 gneE24 gneE2 -gneE4 -gneE13 gneE14 gneE15 gneE16"/>
    </vehicle>
    <vehicle id="31" depart="31.00">
        <route edges="gneE13 gneE4 gneE5 gneE20"/>
    </vehicle>
    <vehicle id="34" depart="34.00">
        <route edges="-gneE33 -gneE32 -gneE31 -gneE30"/>
    </vehicle>
    <vehicle id="36" depart="36.00">
        <route edges="gneE38 -gneE34 -gneE33"/>
    </vehicle>
    <vehicle id="39" depart="39.00">
        <route edges="-gneE3"/>
    </vehicle>
    <vehicle id="51" depart="51.00">
        <route edges="gneE24 gneE2 -gneE3 gneE10 gneE11 gneE12"/>
    </vehicle>
    <vehicle id="55" depart="55.00">
        <route edges="gneE38 -gneE34 -gneE33 -gneE32 -gneE31 -gneE30"/>
    </vehicle>
    <vehicle id="63" depart="63.00">
        <route edges="-gneE11 -gneE10 gneE3 gneE5"/>
    </vehicle>
    <vehicle id="71" depart="71.00">
        <route edges="-gneE3 gneE10 gneE11 gneE12 -gneE6 gneE9 gneE39"/>
    </vehicle>
    <vehicle id="72" depart="72.00">
        <route edges="-gneE5 -gneE2 -gneE26"/>
    </vehicle>
    <vehicle id="77" depart="77.00">
        <route edges="-gneE17 -gneE16 -gneE15 -gneE14 gneE13 gneE4 -gneE2 -gneE26"/>
    </vehicle>
    <vehicle id="85" depart="85.00">
        <route edges="gneE6 -gneE12 -gneE11 -gneE10 gneE3 -gneE4 -gneE13 gneE14"/>
    </vehicle>
    <vehicle id="94" depart="94.00">
        <route edges="-gneE20 -gneE5 -gneE3 gneE10 gneE11 gneE12 -gneE6"/>
    </vehicle>
    <vehicle id="102" depart="102.00">
        <route edges="-gneE9 gneE6 -gneE12 -gneE11 -gneE10 gneE3 -gneE2 -gneE26"/>
    </vehicle>
    <vehicle id="103" depart="103.00">
        <route edges="-gneE4 -gneE13"/>
    </vehicle>
    <vehicle id="112" depart="112.00">
        <route edges="-gneE13 gneE14 gneE15"/>
    </vehicle>
    <vehicle id="115" depart="115.00">
        <route edges="-gneE14 gneE13 gneE4 -gneE2 -gneE24"/>
    </vehicle>
    <vehicle id="119" depart="119.00">
        <route edges="gneE15 gneE16 gneE17"/>
    </vehicle>
    <vehicle id="120" depart="120.00">
        <route edges="-gneE40 -gneE39 -gneE9 gneE6 -gneE12 -gneE11 -gneE10 gneE3 -gneE4 -gneE13 gneE14 gneE15"/>
    </vehicle>
    <vehicle id="127" depart="127.00">
        <route edges="gneE9"/>
    </vehicle>
    <vehicle id="128" depart="128.00">
        <route edges="-gneE14 gneE13 gneE4 -gneE2 -gneE26"/>
    </vehicle>
    <vehicle id="137" depart="137.00">
        <route edges="-gneE18 -gneE17"/>
    </vehicle>
    <vehicle id="138" depart="138.00">
        <route edges="-gneE16 -gneE15 -gneE14 gneE13"/>
    </vehicle>
    <vehicle id="145" depart="145.00">
        <route edges="-gneE10 gneE3"/>
    </vehicle>
    <vehicle id="149" depart="149.00">
        <route edges="-gneE14 gneE13 gneE4 -gneE3 gneE10 gneE11 gneE12 -gneE6 gneE9 gneE39"/>
    </vehicle>
    <vehicle id="150" depart="150.00">
        <route edges="gneE4 -gneE3 gneE10 gneE11 gneE12"/>
    </vehicle>
    <vehicle id="158" depart="158.00">
        <route edges="-gneE40 -gneE39 -gneE9 gneE6 -gneE12 -gneE11 -gneE10 gneE3 -gneE4 -gneE13 gneE14 gneE15 gneE16 gneE17"/>
    </vehicle>
    <vehicle id="159" depart="159.00">
        <route edges="-gneE19 -gneE7 gneE6 -gneE12 -gneE11 -gneE10 gneE3 gneE5"/>
    </vehicle>
    <vehicle id="171" depart="171.00">
        <route edges="-gneE11 -gneE10 gneE3 -gneE2 -gneE24"/>
    </vehicle>
    <vehicle id="182" depart="182.00">
        <route edges="-gneE39 -gneE9 gneE6 -gneE12 -gneE11 -gneE10 gneE3 -gneE4 -gneE13 gneE14"/>
    </vehicle>
    <vehicle id="184" depart="184.00">
        <route edges="-gneE10 gneE3 gneE5"/>
    </vehicle>
    <vehicle id="198" depart="198.00">
        <route edges="-gneE5 -gneE4 -gneE13 gneE14"/>
    </vehicle>
    <vehicle id="203" depart="203.00">
        <route edges="-gneE15 -gneE14 gneE13 gneE4 -gneE3 gneE10"/>
    </vehicle>
    <vehicle id="206" depart="206.00">
        <route edges="gneE23 gneE24 -gneE26"/>
    </vehicle>
    <vehicle id="207" depart="207.00">
        <route edges="-gneE21 -gneE8 gneE6 -gneE12 -gneE11"/>
    </vehicle>
    <vehicle id="210" depart="210.00">
        <route edges="-gneE40 -gneE39 -gneE9 gneE6 -gneE12 -gneE11 -gneE10 gneE3 -gneE4 -gneE13 gneE14 gneE15 gneE16 gneE17 gneE18"/>
    </vehicle>
    <vehicle id="214" depart="214.00">
        <route edges="gneE3"/>
    </vehicle>
    <vehicle id="220" depart="220.00">
        <route edges="gneE23 gneE24 gneE2 -gneE3 gneE10 gneE11 gneE12 -gneE6 gneE9"/>
    </vehicle>
    <vehicle id="223" depart="223.00">
        <route edges="gneE26 gneE2 -gneE3 gneE10"/>
    </vehicle>
    <vehicle id="234" depart="234.00">
        <route edges="gneE25 gneE26 gneE2 -gneE4 -gneE13"/>
    </vehicle>
    <vehicle id="236" depart="236.00">
        <route edges="-gneE40 -gneE39 -gneE9 gneE6 -gneE12 -gneE11 -gneE10 gneE3 -gneE2 -gneE26 -gneE25"/>
    </vehicle>
    <vehicle id="237" depart="237.00">
        <route edges="-gneE5 -gneE3 gneE10 gneE11 gneE12 -gneE6 gneE9 gneE39 gneE40"/>
    </vehicle>
    <vehicle id="240" depart="240.00">
        <route edges="-gneE39 -gneE9 gneE6 -gneE12 -gneE11 -gneE10"/>
    </vehicle>
    <vehicle id="248" depart="248.00">
        <route edges="-gneE40 -gneE39 -gneE9 gneE6 -gneE12 -gneE11 -gneE10 gneE3 -gneE2 -gneE24 -gneE23"/>
    </vehicle>
    <vehicle id="252" depart="252.00">
        <route edges="-gneE11 -gneE10 gneE3 -gneE4 -gneE13 gneE14 gneE15 gneE16 gneE17 gneE18"/>
    </vehicle>
    <vehicle id="256" depart="256.00">
        <route edges="gneE30 gneE31 gneE32 gneE33 gneE34 -gneE38"/>
    </vehicle>
    <vehicle id="263" depart="263.00">
        <route edges="gneE6 -gneE12 -gneE11 -gneE10 gneE3 -gneE2 -gneE26 -gneE25"/>
    </vehicle>
    <vehicle id="264" depart="264.00">
        <route edges="-gneE11 -gneE10 gneE3 -gneE2 -gneE24 -gneE23 -gneE22"/>
    </vehicle>
    <vehicle id="266" depart="266.00">
        <route edges="gneE13 gneE4 -gneE2 -gneE26"/>
    </vehicle>
    <vehicle id="275" depart="275.00">
        <route edges="gneE24 gneE2 -gneE4 -gneE13 gneE14 gneE15 gneE16 gneE17"/>
    </vehicle>
    <vehicle id="278" depart="278.00">
        <route edges="-gneE17 -gneE16 -gneE15 -gneE14 gneE13 gneE4 -gneE3 gneE10 gneE11 gneE12 -gneE6 gneE8"/>
    </vehicle>
    <vehicle id="283" depart="283.00">
        <route edges="-gneE16 -gneE15 -gneE14 gneE13 gneE4 -gneE3 gneE10 gneE11 gneE12 -gneE6 gneE7"/>
    </vehicle>
    <vehicle id="285" depart="285.00">
        <route edges="gneE25 gneE26 gneE2 -gneE3 gneE10 gneE11 gneE12 -gneE6"/>
    </vehicle>
    <vehicle id="286" depart="286.00">
        <route edges="gneE29 -gneE5 -gneE3 gneE10 gneE11 gneE12 -gneE6 gneE7"/>
    </vehicle>
    <vehicle id="293" depart="293.00">
        <route edges="-gneE7 gneE6 -gneE12 -gneE11 -gneE10 gneE3 -gneE4 -gneE13 gneE14 gneE15 gneE16"/>
    </vehicle>
    <vehicle id="294" depart="294.00">
        <route edges="-gneE39 -gneE9 gneE6 -gneE12 -gneE11"/>
    </vehicle>
    <vehicle id="301" depart="301.00">
        <route edges="-gneE9 gneE6 -gneE12 -gneE11 -gneE10 gneE3"/>
    </vehicle>
    <vehicle id="302" depart="302.00">
        <route edges="gneE24 gneE2 -gneE3 gneE10 gneE11 gneE12 -gneE6 gneE7 gneE19"/>
    </vehicle>
    <vehicle id="304" depart="304.00">
        <route edges="-gneE15 -gneE14 gneE13 gneE4 -gneE2 -gneE26"/>
    </vehicle>
    <vehicle id="313" depart="313.00">
        <route edges="-gneE20 -gneE5 -gneE2 -gneE26"/>
    </vehicle>
    <vehicle id="317" depart="317.00">
        <route edges="-gneE21 -gneE8 gneE6 -gneE12 -gneE11 -gneE10 gneE3 gneE5 -gneE29"/>
    </vehicle>
    <vehicle id="325" depart="325.00">
        <route edges="-gneE20 -gneE5 -gneE4 -gneE13"/>
    </vehicle>
    <vehicle id="334" depart="334.00">
        <route edges="gneE11 gneE12 -gneE6"/>
    </vehicle>
    <vehicle id="339" depart="339.00">
        <route edges="-gneE21 -gneE8 gneE6 -gneE12 -gneE11 -gneE10 gneE3 -gneE2 -gneE26"/>
    </vehicle>
    <vehicle id="346" depart="346.00">
        <route edges="gneE24 gneE2 gneE5"/>
    </vehicle>
    <vehicle id="348" depart="348.00">
        <route edges="gneE22 gneE23 gneE24 gneE2 gneE5"/>
    </vehicle>
    <vehicle id="349" depart="349.00">
        <route edges="-gneE5 -gneE3 gneE10 gneE11 gneE12"/>
    </vehicle>
    <vehicle id="350" depart="350.00">
        <route edges="gneE22 gneE23 gneE24 gneE2 -gneE3 gneE10 gneE11 gneE12 -gneE6 gneE9 gneE39 gneE40"/>
    </vehicle>
    <vehicle id="353" depart="353.00">
        <route edges="gneE3 -gneE4 -gneE13 gneE14"/>
    </vehicle>
    <vehicle id="355" depart="355.00">
        <route edges="gneE24 gneE2 -gneE3 gneE10 gneE11 gneE12 -gneE6 gneE8 gneE21"/>
    </vehicle>
    <vehicle id="360" depart="360.00">
        <route edges="-gneE15 -gneE14 gneE13 gneE4 -gneE3 gneE10 gneE11 gneE12 -gneE6 gneE7"/>
    </vehicle>
    <vehicle id="365" depart="365.00">
        <route edges="-gneE8 gneE7 gneE19"/>
    </vehicle>
    <vehicle id="366" depart="366.00">
        <route edges="gneE4 -gneE2 -gneE24"/>
    </vehicle>
    <vehicle id="367" depart="367.00">
        <route edges="gneE15 gneE16 gneE17 gneE18"/>
    </vehicle>
    <vehicle id="380" depart="380.00">
        <route edges="gneE3 -gneE4 -gneE13 gneE14 gneE15 gneE16 gneE17"/>
    </vehicle>
    <vehicle id="382" depart="382.00">
        <route edges="gneE13 gneE4 gneE5"/>
    </vehicle>
    <vehicle id="383" depart="383.00">
        <route edges="-gneE6 gneE8 gneE21"/>
    </vehicle>
    <vehicle id="384" depart="384.00">
        <route edges="-gneE17 -gneE16 -gneE15 -gneE14 gneE13 gneE4 -gneE3 gneE10 gneE11 gneE12 -gneE6 gneE8"/>
    </vehicle>
    <vehicle id="388" depart="388.00">
        <route edges="gneE9 gneE39 gneE40"/>
    </vehicle>
    <vehicle id="391" depart="391.00">
        <route edges="gneE26 gneE2 -gneE3 gneE10"/>
    </vehicle>
    <vehicle id="398" depart="398.00">
        <route edges="-gneE40 -gneE39 -gneE9 gneE6 -gneE12 -gneE11 -gneE10 gneE3 gneE5"/>
    </vehicle>
    <vehicle id="402" depart="402.00">
        <route edges="-gneE9 gneE6 -gneE12 -gneE11 -gneE10 gneE3 -gneE2 -gneE24 -gneE23 -gneE22"/>
    </vehicle>
    <vehicle id="404" depart="404.00">
        <route edges="gneE13 gneE4 -gneE3 gneE10 gneE11 gneE12"/>
    </vehicle>
    <vehicle id="406" depart="406.00">
        <route edges="-gneE20 -gneE5 -gneE3 gneE10 gneE11 gneE12 -gneE6 gneE8 gneE21"/>
    </vehicle>
    <vehicle id="410" depart="410.00">
        <route edges="gneE33 gneE34 -gneE38"/>
    </vehicle>
    <vehicle id="417" depart="417.00">
        <route edges="gneE26 gneE2 -gneE4"/>
    </vehicle>
    <vehicle id="422" depart="422.00">
        <route edges="gneE35 gneE36 gneE37"/>
    </vehicle>
    <vehicle id="431" depart="431.00">
        <route edges="gneE25 gneE26 gneE2 -gneE3 gneE10 gneE11 gneE12 -gneE6 gneE9 gneE39 gneE40"/>
    </vehicle>
    <vehicle id="448" depart="448.00">
        <route edges="-gneE8 gneE6 -gneE12 -gneE11 -gneE10 gneE3 gneE5 -gneE29"/>
    </vehicle>
    <vehicle id="449" depart="449.00">
        <route edges="gneE14"/>
    </vehicle>
    <vehicle id="454" depart="454.00">
        <route edges="-gneE13 gneE14 gneE15 gneE16"/>
    </vehicle>
    <vehicle id="458" depart="458.00">
        <route edges="gneE2 -gneE4 -gneE13 gneE14 gneE15 gneE16 gneE17"/>
    </vehicle>
    <vehicle id="466" depart="466.00">
        <route edges="-gneE2"/>
    </vehicle>
    <vehicle id="467" depart="467.00">
        <route edges="gneE12 -gneE6 gneE8"/>
    </vehicle>
    <vehicle id="468" depart="468.00">
        <route edges="gneE11 gneE12 -gneE6 gneE9 gneE39 gneE40"/>
    </vehicle>
    <vehicle id="475" depart="475.00">
        <route edges="gneE26 gneE2 -gneE3 gneE10 gneE11 gneE12 -gneE6 gneE8"/>
    </vehicle>
    <vehicle id="480" depart="480.00">
        <route edges="gneE23 gneE24 gneE2 -gneE4 -gneE13 gneE14 gneE15"/>
    </vehicle>
    <vehicle id="482" depart="482.00">
        <route edges="-gneE16 -gneE15 -gneE14 gneE13 gneE4 gneE5 -gneE29"/>
    </vehicle>
    <vehicle id="484" depart="484.00">
        <route edges="gneE13 gneE4 -gneE3 gneE10 gneE11 gneE12 -gneE6 gneE9 gneE39 gneE40"/>
    </vehicle>
    <vehicle id="490" depart="490.00">
        <route edges="-gneE16 -gneE15 -gneE14 gneE13 gneE4"/>
    </vehicle>
    <vehicle id="493" depart="493.00">
        <route edges="gneE6 -gneE12 -gneE11 -gneE10 gneE3 -gneE4"/>
    </vehicle>
    <vehicle id="494" depart="494.00">
        <route edges="gneE3 -gneE2 -gneE24 -gneE23 -gneE22"/>
    </vehicle>
    <vehicle id="496" depart="496.00">
        <route edges="-gneE9 gneE6 -gneE12 -gneE11 -gneE10 gneE3 -gneE4"/>
    </vehicle>
    <vehicle id="497" depart="497.00">
        <route edges="gneE6 -gneE12"/>
    </vehicle>
</routes>
