<?xml version="1.0" encoding="UTF-8"?>

<!-- generated on 03/23/21 18:15:03 by Eclipse SUMO netedit Version 1.7.0
<configuration xmlns:xsi="http://www.w3.org/2001/XMLSchema-instance" xsi:noNamespaceSchemaLocation="http://sumo.dlr.de/xsd/netconvertConfiguration.xsd">

    <input>
        <sumo-net-file value="E:\python%20simulation%20for%20traffic%20light%20signals\Test\citysample\citysample.net.xml"/>
    </input>

    <output>
        <output-file value="E:\python%20simulation%20for%20traffic%20light%20signals\Test\citysample\citysample.net.xml"/>
    </output>

    <processing>
        <geometry.min-radius.fix.railways value="false"/>
        <geometry.max-grade.fix value="false"/>
        <offset.disable-normalization value="true"/>
        <lefthand value="false"/>
    </processing>

    <junctions>
        <no-turnarounds value="true"/>
        <junctions.corner-detail value="5"/>
        <junctions.limit-turn-speed value="5.5"/>
        <rectangular-lane-cut value="false"/>
    </junctions>

    <pedestrian>
        <walkingareas value="false"/>
    </pedestrian>

    <report>
        <aggregate-warnings value="5"/>
    </report>

</configuration>
-->

<net version="1.6" junctionCornerDetail="5" limitTurnSpeed="5.50" xmlns:xsi="http://www.w3.org/2001/XMLSchema-instance" xsi:noNamespaceSchemaLocation="http://sumo.dlr.de/xsd/net_file.xsd">

    <location netOffset="-257889.91,-2569858.39" convBoundary="0.00,0.00,2623.85,2721.04" origBoundary="72.634136,23.220117,72.659531,23.244914" projParameter="+proj=utm +zone=43 +ellps=WGS84 +datum=WGS84 +units=m +no_defs"/>

    <type id="highway.bridleway" priority="1" numLanes="1" speed="2.78" allow="pedestrian" oneway="1" width="2.00"/>
    <type id="highway.bus_guideway" priority="1" numLanes="1" speed="27.78" allow="bus" oneway="1"/>
    <type id="highway.cycleway" priority="1" numLanes="1" speed="8.33" allow="bicycle" oneway="0" width="1.00"/>
    <type id="highway.footway" priority="1" numLanes="1" speed="2.78" allow="pedestrian" oneway="1" width="2.00"/>
    <type id="highway.ford" priority="1" numLanes="1" speed="2.78" allow="army" oneway="0"/>
    <type id="highway.living_street" priority="2" numLanes="1" speed="2.78" disallow="tram rail_urban rail rail_electric rail_fast ship" oneway="0"/>
    <type id="highway.motorway" priority="14" numLanes="2" speed="39.44" allow="private emergency authority army vip passenger hov taxi bus coach delivery truck trailer motorcycle evehicle custom1 custom2" oneway="1"/>
    <type id="highway.motorway_link" priority="9" numLanes="1" speed="22.22" allow="private emergency authority army vip passenger hov taxi bus coach delivery truck trailer motorcycle evehicle custom1 custom2" oneway="1"/>
    <type id="highway.path" priority="1" numLanes="1" speed="2.78" allow="pedestrian bicycle" oneway="1" width="2.00"/>
    <type id="highway.pedestrian" priority="1" numLanes="1" speed="2.78" allow="pedestrian" oneway="1" width="2.00"/>
    <type id="highway.primary" priority="12" numLanes="2" speed="27.78" disallow="tram rail_urban rail rail_electric rail_fast ship" oneway="0"/>
    <type id="highway.primary_link" priority="7" numLanes="1" speed="22.22" disallow="tram rail_urban rail rail_electric rail_fast ship" oneway="0"/>
    <type id="highway.raceway" priority="15" numLanes="2" speed="83.33" allow="vip" oneway="0"/>
    <type id="highway.residential" priority="3" numLanes="1" speed="13.89" disallow="tram rail_urban rail rail_electric rail_fast ship" oneway="0"/>
    <type id="highway.secondary" priority="11" numLanes="1" speed="27.78" disallow="tram rail_urban rail rail_electric rail_fast ship" oneway="0"/>
    <type id="highway.secondary_link" priority="6" numLanes="1" speed="22.22" disallow="tram rail_urban rail rail_electric rail_fast ship" oneway="0"/>
    <type id="highway.service" priority="1" numLanes="1" speed="5.56" allow="pedestrian delivery bicycle" oneway="0"/>
    <type id="highway.stairs" priority="1" numLanes="1" speed="1.39" allow="pedestrian" oneway="1" width="2.00"/>
    <type id="highway.step" priority="1" numLanes="1" speed="1.39" allow="pedestrian" oneway="1" width="2.00"/>
    <type id="highway.steps" priority="1" numLanes="1" speed="1.39" allow="pedestrian" oneway="1" width="2.00"/>
    <type id="highway.tertiary" priority="10" numLanes="1" speed="22.22" disallow="tram rail_urban rail rail_electric rail_fast ship" oneway="0"/>
    <type id="highway.tertiary_link" priority="5" numLanes="1" speed="22.22" disallow="tram rail_urban rail rail_electric rail_fast ship" oneway="0"/>
    <type id="highway.track" priority="1" numLanes="1" speed="5.56" allow="pedestrian motorcycle moped bicycle" oneway="0"/>
    <type id="highway.trunk" priority="13" numLanes="2" speed="27.78" disallow="pedestrian bicycle tram rail_urban rail rail_electric rail_fast ship" oneway="0"/>
    <type id="highway.trunk_link" priority="8" numLanes="1" speed="22.22" disallow="pedestrian bicycle tram rail_urban rail rail_electric rail_fast ship" oneway="0"/>
    <type id="highway.unclassified" priority="4" numLanes="1" speed="13.89" disallow="tram rail_urban rail rail_electric rail_fast ship" oneway="0"/>
    <type id="highway.unsurfaced" priority="1" numLanes="1" speed="8.33" disallow="tram rail_urban rail rail_electric rail_fast ship" oneway="0"/>
    <type id="railway.highspeed" priority="21" numLanes="1" speed="69.44" allow="rail_fast" oneway="1"/>
    <type id="railway.light_rail" priority="19" numLanes="1" speed="27.78" allow="rail_urban" oneway="1"/>
    <type id="railway.preserved" priority="16" numLanes="1" speed="27.78" allow="rail" oneway="1"/>
    <type id="railway.rail" priority="20" numLanes="1" speed="44.44" allow="rail" oneway="1"/>
    <type id="railway.subway" priority="18" numLanes="1" speed="27.78" allow="rail_urban" oneway="1"/>
    <type id="railway.tram" priority="17" numLanes="1" speed="13.89" allow="tram" oneway="1"/>

    <edge id=":323139430_0" function="internal">
        <lane id=":323139430_0_0" index="0" disallow="tram rail_urban rail rail_electric rail_fast ship" speed="3.65" length="4.67" shape="1212.00,426.73 1213.44,426.88 1214.17,427.40 1214.18,428.30 1213.50,429.57"/>
    </edge>
    <edge id=":323144133_0" function="internal">
        <lane id=":323144133_0_0" index="0" disallow="tram rail_urban rail rail_electric rail_fast ship" speed="22.22" length="9.40" shape="592.37,971.79 587.52,963.74"/>
    </edge>
    <edge id=":323144133_1" function="internal">
        <lane id=":323144133_1_0" index="0" disallow="tram rail_urban rail rail_electric rail_fast ship" speed="6.08" length="7.77" shape="592.37,971.79 591.11,969.32 590.60,967.33 590.83,965.82 591.81,964.78"/>
    </edge>
    <edge id=":323144133_2" function="internal">
        <lane id=":323144133_2_0" index="0" disallow="tram rail_urban rail rail_electric rail_fast ship" speed="6.10" length="7.76" shape="593.44,967.53 592.07,967.89 590.62,967.38 589.11,965.99 587.52,963.74"/>
    </edge>
    <edge id=":323144133_3" function="internal">
        <lane id=":323144133_3_0" index="0" disallow="tram rail_urban rail rail_electric rail_fast ship" speed="3.65" length="4.67" shape="593.44,967.53 592.00,967.46 591.25,966.97 591.18,966.08 591.81,964.78"/>
    </edge>
    <edge id=":323144491_0" function="internal">
        <lane id=":323144491_0_0" index="0" disallow="tram rail_urban rail rail_electric rail_fast ship" speed="22.22" length="9.41" shape="523.33,857.39 518.49,849.32"/>
    </edge>
    <edge id=":323144491_1" function="internal">
        <lane id=":323144491_1_0" index="0" disallow="tram rail_urban rail rail_electric rail_fast ship" speed="6.08" length="7.76" shape="523.33,857.39 522.07,854.93 521.55,852.94 521.78,851.43 522.74,850.39"/>
    </edge>
    <edge id=":323144491_2" function="internal">
        <lane id=":323144491_2_0" index="0" disallow="tram rail_urban rail rail_electric rail_fast ship" speed="6.08" length="7.76" shape="524.39,853.13 523.02,853.49 521.58,852.98 520.07,851.59 518.49,849.32"/>
    </edge>
    <edge id=":323144491_3" function="internal">
        <lane id=":323144491_3_0" index="0" disallow="tram rail_urban rail rail_electric rail_fast ship" speed="3.65" length="4.67" shape="524.39,853.13 522.95,853.06 522.19,852.58 522.13,851.69 522.74,850.39"/>
    </edge>
    <edge id=":3326661609_0" function="internal">
        <lane id=":3326661609_0_0" index="0" disallow="tram rail_urban rail rail_electric rail_fast ship" speed="5.76" length="9.17" shape="1279.23,566.19 1276.82,567.43 1275.75,568.97 1276.03,570.83 1277.65,573.00"/>
    </edge>
    <edge id=":3326661609_1" function="internal">
        <lane id=":3326661609_1_0" index="0" disallow="tram rail_urban rail rail_electric rail_fast ship" speed="13.89" length="17.49" shape="1279.23,566.19 1275.25,567.30 1270.73,568.22 1266.20,569.09 1262.18,570.06"/>
    </edge>
    <edge id=":3326661609_2" function="internal">
        <lane id=":3326661609_2_0" index="0" disallow="tram rail_urban rail rail_electric rail_fast ship" speed="3.67" length="4.67" shape="1279.23,566.19 1277.83,565.83 1277.19,565.21 1277.30,564.32 1278.17,563.17"/>
    </edge>
    <edge id=":3326661609_3" function="internal">
        <lane id=":3326661609_3_0" index="0" disallow="tram rail_urban rail rail_electric rail_fast ship" speed="10.96" length="15.71" shape="1263.32,560.84 1266.97,562.98 1270.66,564.08 1274.39,564.15 1278.17,563.17"/>
    </edge>
    <edge id=":3326661609_4" function="internal">
        <lane id=":3326661609_4_0" index="0" disallow="tram rail_urban rail rail_electric rail_fast ship" speed="22.22" length="18.80" shape="1263.32,560.84 1266.77,563.49 1270.68,566.69 1274.50,570.01 1277.65,573.00"/>
    </edge>
    <edge id=":3326661609_5" function="internal">
        <lane id=":3326661609_5_0" index="0" disallow="tram rail_urban rail rail_electric rail_fast ship" speed="6.53" length="13.62" shape="1263.32,560.84 1266.49,563.80 1267.36,566.32 1265.92,568.40 1262.18,570.06"/>
    </edge>
    <edge id=":3326661609_6" function="internal">
        <lane id=":3326661609_6_0" index="0" disallow="tram rail_urban rail rail_electric rail_fast ship" speed="13.89" length="16.74" shape="1261.85,566.82 1265.77,565.91 1270.06,565.15 1274.33,564.32 1278.17,563.17"/>
    </edge>
    <edge id=":3326661609_7" function="internal">
        <lane id=":3326661609_7_0" index="0" disallow="tram rail_urban rail rail_electric rail_fast ship" speed="11.15" length="17.81" shape="1261.85,566.82 1265.66,566.38 1269.57,567.26 1273.56,569.47 1277.65,573.00"/>
    </edge>
    <edge id=":3326661609_8" function="internal">
        <lane id=":3326661609_8_0" index="0" disallow="tram rail_urban rail rail_electric rail_fast ship" speed="3.67" length="4.75" shape="1261.85,566.82 1263.14,567.51 1263.63,568.27 1263.31,569.12 1262.18,570.06"/>
    </edge>
    <edge id=":3326661611_0" function="internal">
        <lane id=":3326661611_0_0" index="0" disallow="tram rail_urban rail rail_electric rail_fast ship" speed="5.60" length="6.47" shape="1248.46,581.76 1247.05,579.53 1245.86,578.05 1244.91,577.30 1244.19,577.30"/>
    </edge>
    <edge id=":3326661611_1" function="internal">
        <lane id=":3326661611_1_0" index="0" disallow="tram rail_urban rail rail_electric rail_fast ship" speed="7.79" length="14.71" shape="1248.46,581.76 1246.90,577.96 1247.03,574.71 1248.84,572.02 1252.35,569.89"/>
    </edge>
    <edge id=":3326661611_2" function="internal">
        <lane id=":3326661611_2_0" index="0" disallow="tram rail_urban rail rail_electric rail_fast ship" speed="3.65" length="4.67" shape="1248.46,581.76 1248.54,580.32 1249.03,579.57 1249.92,579.50 1251.22,580.13"/>
    </edge>
    <edge id=":3326661611_3" function="internal">
        <lane id=":3326661611_3_0" index="0" disallow="tram rail_urban rail rail_electric rail_fast ship" speed="6.24" length="9.05" shape="1253.61,572.83 1251.45,574.14 1250.33,575.80 1250.26,577.79 1251.22,580.13"/>
    </edge>
    <edge id=":3326661611_4" function="internal">
        <lane id=":3326661611_4_0" index="0" disallow="tram rail_urban rail rail_electric rail_fast ship" speed="13.89" length="10.44" shape="1253.61,572.83 1250.80,573.99 1248.78,574.83 1246.82,575.78 1244.19,577.30"/>
    </edge>
    <edge id=":3326661611_5" function="internal">
        <lane id=":3326661611_5_0" index="0" disallow="tram rail_urban rail rail_electric rail_fast ship" speed="3.65" length="2.34" shape="1253.61,572.83 1252.19,572.56 1251.51,571.99"/>
    </edge>
    <edge id=":3326661611_9" function="internal">
        <lane id=":3326661611_9_0" index="0" disallow="tram rail_urban rail rail_electric rail_fast ship" speed="3.65" length="2.34" shape="1251.51,571.99 1251.56,571.09 1252.35,569.89"/>
    </edge>
    <edge id=":3326661611_6" function="internal">
        <lane id=":3326661611_6_0" index="0" disallow="tram rail_urban rail rail_electric rail_fast ship" speed="13.89" length="10.89" shape="1242.53,574.56 1245.22,573.01 1247.32,571.99 1249.48,571.08 1252.35,569.89"/>
    </edge>
    <edge id=":3326661611_7" function="internal">
        <lane id=":3326661611_7_0" index="0" disallow="tram rail_urban rail rail_electric rail_fast ship" speed="7.21" length="3.51" shape="1242.53,574.56 1244.56,574.01 1245.89,574.47"/>
    </edge>
    <edge id=":3326661611_8" function="internal">
        <lane id=":3326661611_8_0" index="0" disallow="tram rail_urban rail rail_electric rail_fast ship" speed="3.65" length="2.34" shape="1242.53,574.56 1243.97,574.62 1244.73,575.10"/>
    </edge>
    <edge id=":3326661611_10" function="internal">
        <lane id=":3326661611_10_0" index="0" disallow="tram rail_urban rail rail_electric rail_fast ship" speed="7.21" length="7.92" shape="1245.89,574.47 1246.69,574.75 1248.91,576.79 1251.22,580.13"/>
    </edge>
    <edge id=":3326661611_11" function="internal">
        <lane id=":3326661611_11_0" index="0" disallow="tram rail_urban rail rail_electric rail_fast ship" speed="3.65" length="2.34" shape="1244.73,575.10 1244.80,575.99 1244.19,577.30"/>
    </edge>
    <edge id=":3326714593_0" function="internal">
        <lane id=":3326714593_0_0" index="0" disallow="tram rail_urban rail rail_electric rail_fast ship" speed="19.91" length="5.85" shape="1101.19,1815.20 1099.46,1815.20 1098.28,1815.35 1097.13,1815.68 1095.49,1816.24"/>
    </edge>
    <edge id=":3326714593_1" function="internal">
        <lane id=":3326714593_1_0" index="0" disallow="tram rail_urban rail rail_electric rail_fast ship" speed="6.66" length="5.40" shape="1101.19,1815.20 1100.03,1814.99 1098.95,1814.40 1097.94,1813.46 1097.00,1812.14"/>
    </edge>
    <edge id=":3326714597_0" function="internal">
        <lane id=":3326714597_0_0" index="0" disallow="tram rail_urban rail rail_electric rail_fast ship" speed="22.22" length="0.55" shape="1117.51,1827.57 1117.49,1827.40 1117.47,1827.29 1117.43,1827.19 1117.36,1827.04"/>
    </edge>
    <edge id=":3326714602_0" function="internal">
        <lane id=":3326714602_0_0" index="0" disallow="tram rail_urban rail rail_electric rail_fast ship" speed="22.22" length="5.81" shape="1088.16,1840.80 1089.24,1842.15 1090.02,1843.04 1090.93,1843.80 1092.34,1844.77"/>
    </edge>
    <edge id=":3326714602_1" function="internal">
        <lane id=":3326714602_1_0" index="0" disallow="tram rail_urban rail rail_electric rail_fast ship" speed="6.13" length="1.88" shape="1087.41,1845.12 1088.78,1844.45 1089.13,1844.37"/>
    </edge>
    <edge id=":3326714602_2" function="internal">
        <lane id=":3326714602_2_0" index="0" disallow="tram rail_urban rail rail_electric rail_fast ship" speed="6.13" length="3.35" shape="1089.13,1844.37 1090.06,1844.17 1091.25,1844.27 1092.34,1844.77"/>
    </edge>
    <edge id=":3326714603_0" function="internal">
        <lane id=":3326714603_0_0" index="0" disallow="tram rail_urban rail rail_electric rail_fast ship" speed="6.38" length="1.97" shape="1116.09,1844.60 1115.39,1843.19 1115.30,1842.80"/>
    </edge>
    <edge id=":3326714603_2" function="internal">
        <lane id=":3326714603_2_0" index="0" disallow="tram rail_urban rail rail_electric rail_fast ship" speed="6.38" length="3.36" shape="1115.30,1842.80 1115.07,1841.87 1115.13,1840.66 1115.56,1839.56"/>
    </edge>
    <edge id=":3326714603_1" function="internal">
        <lane id=":3326714603_1_0" index="0" disallow="tram rail_urban rail rail_electric rail_fast ship" speed="22.22" length="5.85" shape="1111.76,1843.94 1113.06,1842.80 1113.92,1841.97 1114.65,1841.03 1115.56,1839.56"/>
    </edge>
    <edge id=":3326714606_0" function="internal">
        <lane id=":3326714606_0_0" index="0" disallow="tram rail_urban rail rail_electric rail_fast ship" speed="22.22" length="0.53" shape="1099.70,1847.63 1099.86,1847.67 1099.96,1847.69 1100.07,1847.69 1100.22,1847.68"/>
    </edge>
    <edge id=":3326714607_0" function="internal">
        <lane id=":3326714607_0_0" index="0" disallow="tram rail_urban rail rail_electric rail_fast ship" speed="22.22" length="5.84" shape="1102.90,1847.49 1104.62,1847.32 1105.78,1847.08 1106.90,1846.66 1108.50,1845.99"/>
    </edge>
    <edge id=":3326714607_1" function="internal">
        <lane id=":3326714607_1_0" index="0" disallow="tram rail_urban rail rail_electric rail_fast ship" speed="6.42" length="5.34" shape="1102.90,1847.49 1104.08,1847.59 1105.20,1848.07 1106.25,1848.93 1107.23,1850.17"/>
    </edge>
    <edge id=":3415851499_0" function="internal">
        <lane id=":3415851499_0_0" index="0" disallow="tram rail_urban rail rail_electric rail_fast ship" speed="6.61" length="9.23" shape="1989.45,1123.07 1987.72,1121.30 1985.80,1120.52 1983.70,1120.71 1981.41,1121.89"/>
    </edge>
    <edge id=":3415851499_1" function="internal">
        <lane id=":3415851499_1_0" index="0" disallow="tram rail_urban rail rail_electric rail_fast ship" speed="13.89" length="14.47" shape="1989.45,1123.07 1980.71,1111.53"/>
    </edge>
    <edge id=":3415851499_2" function="internal">
        <lane id=":3415851499_2_0" index="0" disallow="tram rail_urban rail rail_electric rail_fast ship" speed="3.65" length="2.34" shape="1989.45,1123.07 1989.39,1121.63 1989.81,1120.83"/>
    </edge>
    <edge id=":3415851499_9" function="internal">
        <lane id=":3415851499_9_0" index="0" disallow="tram rail_urban rail rail_electric rail_fast ship" speed="3.65" length="2.34" shape="1989.81,1120.83 1990.69,1120.69 1992.04,1121.19"/>
    </edge>
    <edge id=":3415851499_3" function="internal">
        <lane id=":3415851499_3_0" index="0" disallow="tram rail_urban rail rail_electric rail_fast ship" speed="13.89" length="14.61" shape="1983.22,1109.55 1992.04,1121.19"/>
    </edge>
    <edge id=":3415851499_4" function="internal">
        <lane id=":3415851499_4_0" index="0" disallow="tram rail_urban rail rail_electric rail_fast ship" speed="7.90" length="6.17" shape="1983.22,1109.55 1985.22,1112.99 1985.47,1115.17"/>
    </edge>
    <edge id=":3415851499_5" function="internal">
        <lane id=":3415851499_5_0" index="0" disallow="tram rail_urban rail rail_electric rail_fast ship" speed="3.65" length="2.34" shape="1983.22,1109.55 1983.34,1110.99 1982.96,1111.80"/>
    </edge>
    <edge id=":3415851499_10" function="internal">
        <lane id=":3415851499_10_0" index="0" disallow="tram rail_urban rail rail_electric rail_fast ship" speed="7.90" length="8.25" shape="1985.47,1115.17 1985.59,1116.20 1984.32,1119.16 1981.41,1121.89"/>
    </edge>
    <edge id=":3415851499_11" function="internal">
        <lane id=":3415851499_11_0" index="0" disallow="tram rail_urban rail rail_electric rail_fast ship" speed="3.65" length="2.34" shape="1982.96,1111.80 1982.08,1111.98 1980.71,1111.53"/>
    </edge>
    <edge id=":3415851499_6" function="internal">
        <lane id=":3415851499_6_0" index="0" disallow="tram rail_urban rail rail_electric rail_fast ship" speed="6.38" length="9.04" shape="1979.58,1119.27 1981.40,1117.56 1982.19,1115.70 1981.96,1113.69 1980.71,1111.53"/>
    </edge>
    <edge id=":3415851499_7" function="internal">
        <lane id=":3415851499_7_0" index="0" disallow="tram rail_urban rail rail_electric rail_fast ship" speed="8.08" length="14.33" shape="1979.58,1119.27 1983.11,1117.46 1986.37,1117.18 1989.34,1118.42 1992.04,1121.19"/>
    </edge>
    <edge id=":3415851499_8" function="internal">
        <lane id=":3415851499_8_0" index="0" disallow="tram rail_urban rail rail_electric rail_fast ship" speed="3.65" length="4.67" shape="1979.58,1119.27 1981.02,1119.24 1981.80,1119.66 1981.94,1120.55 1981.41,1121.89"/>
    </edge>
    <edge id=":3415872594_0" function="internal">
        <lane id=":3415872594_0_0" index="0" disallow="tram rail_urban rail rail_electric rail_fast ship" speed="3.65" length="4.67" shape="1604.21,1002.87 1602.77,1002.77 1602.03,1002.27 1601.98,1001.38 1602.63,1000.09"/>
    </edge>
    <edge id=":3415886998_0" function="internal">
        <lane id=":3415886998_0_0" index="0" disallow="tram rail_urban rail rail_electric rail_fast ship" speed="12.85" length="10.73" shape="1946.55,921.44 1943.65,921.83 1941.82,923.05 1940.16,924.83 1937.75,926.89"/>
    </edge>
    <edge id=":3415886998_1" function="internal">
        <lane id=":3415886998_1_0" index="0" disallow="tram rail_urban rail rail_electric rail_fast ship" speed="13.89" length="13.93" shape="1946.55,921.44 1943.00,921.10 1939.71,920.33 1936.52,919.17 1933.26,917.66"/>
    </edge>
    <edge id=":3415886998_2" function="internal">
        <lane id=":3415886998_2_0" index="0" disallow="tram rail_urban rail rail_electric rail_fast ship" speed="3.65" length="2.34" shape="1946.55,921.44 1945.37,920.60 1945.00,919.79"/>
    </edge>
    <edge id=":3415886998_9" function="internal">
        <lane id=":3415886998_9_0" index="0" disallow="tram rail_urban rail rail_electric rail_fast ship" speed="3.65" length="2.34" shape="1945.00,919.79 1945.42,919.00 1946.64,918.24"/>
    </edge>
    <edge id=":3415886998_3" function="internal">
        <lane id=":3415886998_3_0" index="0" disallow="tram rail_urban rail rail_electric rail_fast ship" speed="13.89" length="12.55" shape="1934.70,914.79 1937.75,916.26 1940.47,917.30 1943.29,917.96 1946.64,918.24"/>
    </edge>
    <edge id=":3415886998_4" function="internal">
        <lane id=":3415886998_4_0" index="0" disallow="tram rail_urban rail rail_electric rail_fast ship" speed="7.41" length="6.70" shape="1934.70,914.79 1939.37,917.80 1940.02,918.74"/>
    </edge>
    <edge id=":3415886998_5" function="internal">
        <lane id=":3415886998_5_0" index="0" disallow="tram rail_urban rail rail_electric rail_fast ship" speed="3.65" length="2.34" shape="1934.70,914.79 1935.41,916.05 1935.41,916.94"/>
    </edge>
    <edge id=":3415886998_10" function="internal">
        <lane id=":3415886998_10_0" index="0" disallow="tram rail_urban rail rail_electric rail_fast ship" speed="7.41" length="9.97" shape="1940.02,918.74 1941.44,920.81 1940.89,923.84 1937.75,926.89"/>
    </edge>
    <edge id=":3415886998_11" function="internal">
        <lane id=":3415886998_11_0" index="0" disallow="tram rail_urban rail rail_electric rail_fast ship" speed="3.65" length="2.34" shape="1935.41,916.94 1934.70,917.48 1933.26,917.66"/>
    </edge>
    <edge id=":3415886998_6" function="internal">
        <lane id=":3415886998_6_0" index="0" disallow="tram rail_urban rail rail_electric rail_fast ship" speed="5.89" length="9.98" shape="1934.98,924.91 1936.89,923.07 1937.24,921.25 1936.03,919.44 1933.26,917.66"/>
    </edge>
    <edge id=":3415886998_7" function="internal">
        <lane id=":3415886998_7_0" index="0" disallow="tram rail_urban rail rail_electric rail_fast ship" speed="13.89" length="13.73" shape="1934.98,924.91 1937.84,922.66 1940.48,920.46 1943.29,918.82 1946.64,918.24"/>
    </edge>
    <edge id=":3415886998_8" function="internal">
        <lane id=":3415886998_8_0" index="0" disallow="tram rail_urban rail rail_electric rail_fast ship" speed="3.73" length="4.97" shape="1934.98,924.91 1936.42,924.37 1937.35,924.52 1937.80,925.36 1937.75,926.89"/>
    </edge>
    <edge id=":3415887194_0" function="internal">
        <lane id=":3415887194_0_0" index="0" disallow="tram rail_urban rail rail_electric rail_fast ship" speed="6.68" length="9.09" shape="2155.67,722.89 2154.04,721.08 2152.18,720.19 2150.09,720.22 2147.77,721.16"/>
    </edge>
    <edge id=":3415887194_1" function="internal">
        <lane id=":3415887194_1_0" index="0" disallow="tram rail_urban rail rail_electric rail_fast ship" speed="13.89" length="14.19" shape="2155.67,722.89 2148.26,710.80"/>
    </edge>
    <edge id=":3415887194_2" function="internal">
        <lane id=":3415887194_2_0" index="0" disallow="tram rail_urban rail rail_electric rail_fast ship" speed="3.65" length="2.34" shape="2155.67,722.89 2155.67,721.45 2156.11,720.67"/>
    </edge>
    <edge id=":3415887194_9" function="internal">
        <lane id=":3415887194_9_0" index="0" disallow="tram rail_urban rail rail_electric rail_fast ship" speed="3.65" length="2.34" shape="2156.11,720.67 2157.00,720.56 2158.33,721.11"/>
    </edge>
    <edge id=":3415887194_3" function="internal">
        <lane id=":3415887194_3_0" index="0" disallow="tram rail_urban rail rail_electric rail_fast ship" speed="13.89" length="13.94" shape="2151.05,709.23 2158.33,721.11"/>
    </edge>
    <edge id=":3415887194_4" function="internal">
        <lane id=":3415887194_4_0" index="0" disallow="tram rail_urban rail rail_electric rail_fast ship" speed="8.00" length="5.52" shape="2151.05,709.23 2152.44,712.82 2152.40,714.49"/>
    </edge>
    <edge id=":3415887194_5" function="internal">
        <lane id=":3415887194_5_0" index="0" disallow="tram rail_urban rail rail_electric rail_fast ship" speed="3.65" length="2.34" shape="2151.05,709.23 2150.94,710.67 2150.44,711.41"/>
    </edge>
    <edge id=":3415887194_10" function="internal">
        <lane id=":3415887194_10_0" index="0" disallow="tram rail_urban rail rail_electric rail_fast ship" speed="8.00" length="8.56" shape="2152.40,714.49 2152.36,716.01 2150.80,718.79 2147.77,721.16"/>
    </edge>
    <edge id=":3415887194_11" function="internal">
        <lane id=":3415887194_11_0" index="0" disallow="tram rail_urban rail rail_electric rail_fast ship" speed="3.65" length="2.34" shape="2150.44,711.41 2149.54,711.45 2148.26,710.80"/>
    </edge>
    <edge id=":3415887194_6" function="internal">
        <lane id=":3415887194_6_0" index="0" disallow="tram rail_urban rail rail_electric rail_fast ship" speed="6.51" length="8.96" shape="2146.17,718.39 2148.10,716.88 2149.09,715.11 2149.14,713.08 2148.26,710.80"/>
    </edge>
    <edge id=":3415887194_7" function="internal">
        <lane id=":3415887194_7_0" index="0" disallow="tram rail_urban rail rail_electric rail_fast ship" speed="8.15" length="14.01" shape="2146.17,718.39 2149.73,716.95 2152.95,716.92 2155.81,718.31 2158.33,721.11"/>
    </edge>
    <edge id=":3415887194_8" function="internal">
        <lane id=":3415887194_8_0" index="0" disallow="tram rail_urban rail rail_electric rail_fast ship" speed="3.65" length="4.67" shape="2146.17,718.39 2147.61,718.48 2148.36,718.98 2148.41,719.87 2147.77,721.16"/>
    </edge>
    <edge id=":3415887197_0" function="internal">
        <lane id=":3415887197_0_0" index="0" disallow="tram rail_urban rail rail_electric rail_fast ship" speed="13.89" length="13.32" shape="1927.54,914.79 1924.39,913.25 1921.46,912.01 1918.42,911.14 1914.98,910.68"/>
    </edge>
    <edge id=":3415887197_1" function="internal">
        <lane id=":3415887197_1_0" index="0" disallow="tram rail_urban rail rail_electric rail_fast ship" speed="7.48" length="5.92" shape="1927.54,914.79 1923.67,912.13 1923.10,911.04"/>
    </edge>
    <edge id=":3415887197_2" function="internal">
        <lane id=":3415887197_2_0" index="0" disallow="tram rail_urban rail rail_electric rail_fast ship" speed="3.65" length="2.34" shape="1927.54,914.79 1926.83,913.54 1926.83,912.64"/>
    </edge>
    <edge id=":3415887197_9" function="internal">
        <lane id=":3415887197_9_0" index="0" disallow="tram rail_urban rail rail_electric rail_fast ship" speed="7.48" length="10.11" shape="1923.10,911.04 1922.13,909.19 1922.93,905.96 1926.06,902.46"/>
    </edge>
    <edge id=":3415887197_10" function="internal">
        <lane id=":3415887197_10_0" index="0" disallow="tram rail_urban rail rail_electric rail_fast ship" speed="3.65" length="2.34" shape="1926.83,912.64 1927.54,912.11 1928.97,911.93"/>
    </edge>
    <edge id=":3415887197_3" function="internal">
        <lane id=":3415887197_3_0" index="0" disallow="tram rail_urban rail rail_electric rail_fast ship" speed="5.81" length="9.14" shape="1928.13,904.90 1926.35,906.90 1925.89,908.73 1926.77,910.41 1928.97,911.93"/>
    </edge>
    <edge id=":3415887197_4" function="internal">
        <lane id=":3415887197_4_0" index="0" disallow="tram rail_urban rail rail_electric rail_fast ship" speed="12.88" length="14.71" shape="1928.13,904.90 1925.17,907.21 1922.00,909.12 1918.61,910.36 1914.98,910.68"/>
    </edge>
    <edge id=":3415887197_5" function="internal">
        <lane id=":3415887197_5_0" index="0" disallow="tram rail_urban rail rail_electric rail_fast ship" speed="3.65" length="4.67" shape="1928.13,904.90 1926.70,905.07 1925.87,904.71 1925.66,903.85 1926.06,902.46"/>
    </edge>
    <edge id=":3415887197_6" function="internal">
        <lane id=":3415887197_6_0" index="0" disallow="tram rail_urban rail rail_electric rail_fast ship" speed="11.85" length="12.39" shape="1915.17,907.49 1918.44,907.28 1921.06,906.30 1923.45,904.65 1926.06,902.46"/>
    </edge>
    <edge id=":3415887197_7" function="internal">