<?xml version="1.0" encoding="UTF-8"?>

<!-- generated on 03/22/21 15:32:58 by Eclipse SUMO netedit Version 1.7.0
<configuration xmlns:xsi="http://www.w3.org/2001/XMLSchema-instance" xsi:noNamespaceSchemaLocation="http://sumo.dlr.de/xsd/netconvertConfiguration.xsd">

    <output>
        <output-file value="E:\python%20simulation%20for%20traffic%20light%20signals\Test\city-3\city3.net.xml"/>
    </output>

    <processing>
        <offset.disable-normalization value="true"/>
    </processing>

    <junctions>
        <no-turnarounds value="true"/>
    </junctions>

    <report>
        <aggregate-warnings value="5"/>
    </report>

</configuration>
-->

<net version="1.6" junctionCornerDetail="5" limitTurnSpeed="5.50" xmlns:xsi="http://www.w3.org/2001/XMLSchema-instance" xsi:noNamespaceSchemaLocation="http://sumo.dlr.de/xsd/net_file.xsd">

    <location netOffset="0.00,0.00" convBoundary="-400.00,-300.00,700.00,504.83" origBoundary="10000000000.00,10000000000.00,-10000000000.00,-10000000000.00" projParameter="!"/>

    <edge id=":gneJ10_0" function="internal">
        <lane id=":gneJ10_0_0" index="0" speed="6.63" length="3.77" shape="-201.60,1.33 -201.51,0.37 -201.25,-0.52 -200.81,-1.33 -200.19,-2.07"/>
    </edge>
    <edge id=":gneJ10_1" function="internal">
        <lane id=":gneJ10_1_0" index="0" speed="4.20" length="1.26" shape="-197.93,0.19 -198.14,0.44 -198.28,0.71 -198.37,1.01 -198.40,1.33"/>
    </edge>
    <edge id=":gneJ11_0" function="internal">
        <lane id=":gneJ11_0_0" index="0" speed="10.86" length="10.82" shape="2.63,204.90 0.31,202.89 -1.73,201.92 -4.05,201.62 -7.20,201.60"/>
    </edge>
    <edge id=":gneJ11_1" function="internal">
        <lane id=":gneJ11_1_0" index="0" speed="11.94" length="13.14" shape="2.63,204.90 0.78,202.55 -0.54,199.76 -1.34,196.50 -1.60,192.80"/>
    </edge>
    <edge id=":gneJ11_2" function="internal">
        <lane id=":gneJ11_2_0" index="0" speed="10.77" length="10.63" shape="1.60,192.80 1.81,195.87 2.42,198.53 3.45,200.78 4.90,202.63"/>
    </edge>
    <edge id=":gneJ11_3" function="internal">
        <lane id=":gneJ11_3_0" index="0" speed="8.00" length="4.86" shape="1.60,192.80 1.05,196.65 0.55,197.48"/>
    </edge>
    <edge id=":gneJ11_6" function="internal">
        <lane id=":gneJ11_6_0" index="0" speed="8.00" length="9.33" shape="0.55,197.48 -0.60,199.40 -3.35,201.05 -7.20,201.60"/>
    </edge>
    <edge id=":gneJ11_4" function="internal">
        <lane id=":gneJ11_4_0" index="0" speed="6.51" length="9.03" shape="-7.20,198.40 -4.75,198.05 -3.00,197.00 -1.95,195.25 -1.60,192.80"/>
    </edge>
    <edge id=":gneJ11_5" function="internal">
        <lane id=":gneJ11_5_0" index="0" speed="11.94" length="13.14" shape="-7.20,198.40 -3.50,198.66 -0.24,199.46 2.55,200.78 4.90,202.63"/>
    </edge>
    <edge id=":gneJ14_0" function="internal">
        <lane id=":gneJ14_0_0" index="0" speed="10.77" length="10.63" shape="98.40,307.20 98.19,304.13 97.58,301.47 96.55,299.22 95.10,297.37"/>
    </edge>
    <edge id=":gneJ14_1" function="internal">
        <lane id=":gneJ14_1_0" index="0" speed="8.00" length="4.86" shape="98.40,307.20 98.95,303.35 99.45,302.52"/>
    </edge>
    <edge id=":gneJ14_6" function="internal">
        <lane id=":gneJ14_6_0" index="0" speed="8.00" length="9.33" shape="99.45,302.52 100.60,300.60 103.35,298.95 107.20,298.40"/>
    </edge>
    <edge id=":gneJ14_2" function="internal">
        <lane id=":gneJ14_2_0" index="0" speed="6.51" length="9.03" shape="107.20,301.60 104.75,301.95 103.00,303.00 101.95,304.75 101.60,307.20"/>
    </edge>
    <edge id=":gneJ14_3" function="internal">
        <lane id=":gneJ14_3_0" index="0" speed="11.96" length="13.20" shape="107.20,301.60 103.70,301.44 100.60,300.81 97.78,299.52 95.10,297.37"/>
    </edge>
    <edge id=":gneJ14_4" function="internal">
        <lane id=":gneJ14_4_0" index="0" speed="10.77" length="10.63" shape="97.37,295.10 99.22,296.55 101.47,297.58 104.13,298.19 107.20,298.40"/>
    </edge>
    <edge id=":gneJ14_5" function="internal">
        <lane id=":gneJ14_5_0" index="0" speed="11.94" length="13.14" shape="97.37,295.10 99.22,297.45 100.54,300.24 101.34,303.50 101.60,307.20"/>
    </edge>
    <edge id=":gneJ15_0" function="internal">
        <lane id=":gneJ15_0_0" index="0" speed="6.51" length="9.03" shape="398.40,307.20 398.05,304.75 397.00,303.00 395.25,301.95 392.80,301.60"/>
    </edge>
    <edge id=":gneJ15_1" function="internal">
        <lane id=":gneJ15_1_0" index="0" speed="13.89" length="14.40" shape="398.40,307.20 398.40,292.80"/>
    </edge>
    <edge id=":gneJ15_2" function="internal">
        <lane id=":gneJ15_2_0" index="0" speed="8.00" length="5.93" shape="398.40,307.20 398.95,303.35 400.00,301.60"/>
    </edge>
    <edge id=":gneJ15_12" function="internal">
        <lane id=":gneJ15_12_0" index="0" speed="8.00" length="8.26" shape="400.00,301.60 400.60,300.60 403.35,298.95 407.20,298.40"/>
    </edge>
    <edge id=":gneJ15_3" function="internal">
        <lane id=":gneJ15_3_0" index="0" speed="6.51" length="9.03" shape="407.20,301.60 404.75,301.95 403.00,303.00 401.95,304.75 401.60,307.20"/>
    </edge>
    <edge id=":gneJ15_4" function="internal">
        <lane id=":gneJ15_4_0" index="0" speed="13.89" length="14.40" shape="407.20,301.60 392.80,301.60"/>
    </edge>
    <edge id=":gneJ15_5" function="internal">
        <lane id=":gneJ15_5_0" index="0" speed="8.00" length="5.93" shape="407.20,301.60 403.35,301.05 401.60,300.00"/>
    </edge>
    <edge id=":gneJ15_13" function="internal">
        <lane id=":gneJ15_13_0" index="0" speed="8.00" length="8.26" shape="401.60,300.00 400.60,299.40 398.95,296.65 398.40,292.80"/>
    </edge>
    <edge id=":gneJ15_6" function="internal">
        <lane id=":gneJ15_6_0" index="0" speed="6.51" length="9.03" shape="401.60,292.80 401.95,295.25 403.00,297.00 404.75,298.05 407.20,298.40"/>
    </edge>
    <edge id=":gneJ15_7" function="internal">
        <lane id=":gneJ15_7_0" index="0" speed="13.89" length="14.40" shape="401.60,292.80 401.60,307.20"/>
    </edge>
    <edge id=":gneJ15_8" function="internal">
        <lane id=":gneJ15_8_0" index="0" speed="8.00" length="5.93" shape="401.60,292.80 401.05,296.65 400.00,298.40"/>
    </edge>
    <edge id=":gneJ15_14" function="internal">
        <lane id=":gneJ15_14_0" index="0" speed="8.00" length="8.26" shape="400.00,298.40 399.40,299.40 396.65,301.05 392.80,301.60"/>
    </edge>
    <edge id=":gneJ15_9" function="internal">
        <lane id=":gneJ15_9_0" index="0" speed="6.51" length="9.03" shape="392.80,298.40 395.25,298.05 397.00,297.00 398.05,295.25 398.40,292.80"/>
    </edge>
    <edge id=":gneJ15_10" function="internal">
        <lane id=":gneJ15_10_0" index="0" speed="13.89" length="14.40" shape="392.80,298.40 407.20,298.40"/>
    </edge>
    <edge id=":gneJ15_11" function="internal">
        <lane id=":gneJ15_11_0" index="0" speed="8.00" length="5.93" shape="392.80,298.40 396.65,298.95 398.40,300.00"/>
    </edge>
    <edge id=":gneJ15_15" function="internal">
        <lane id=":gneJ15_15_0" index="0" speed="8.00" length="8.26" shape="398.40,300.00 399.40,300.60 401.05,303.35 401.60,307.20"/>
    </edge>
    <edge id=":gneJ17_0" function="internal">
        <lane id=":gneJ17_0_0" index="0" speed="6.08" length="7.74" shape="101.60,396.80 101.30,398.90 100.40,400.40 98.90,401.30 96.80,401.60"/>
    </edge>
    <edge id=":gneJ17_1" function="internal">
        <lane id=":gneJ17_1_0" index="0" speed="3.90" length="2.58" shape="96.80,398.40 97.50,398.30 98.00,398.00 98.30,397.50 98.40,396.80"/>
    </edge>
    <edge id=":gneJ22_0" function="internal">
        <lane id=":gneJ22_0_0" index="0" speed="4.20" length="1.26" shape="-98.67,-98.40 -98.99,-98.37 -99.29,-98.28 -99.56,-98.14 -99.81,-97.93"/>
    </edge>
    <edge id=":gneJ22_1" function="internal">
        <lane id=":gneJ22_1_0" index="0" speed="6.63" length="3.77" shape="-102.07,-100.19 -101.33,-100.81 -100.52,-101.25 -99.63,-101.51 -98.67,-101.60"/>
    </edge>
    <edge id=":gneJ23_0" function="internal">
        <lane id=":gneJ23_0_0" index="0" speed="6.08" length="7.74" shape="1.60,-103.20 1.30,-101.10 0.40,-99.60 -1.10,-98.70 -3.20,-98.40"/>
    </edge>
    <edge id=":gneJ23_1" function="internal">
        <lane id=":gneJ23_1_0" index="0" speed="3.90" length="2.58" shape="-3.20,-101.60 -2.50,-101.70 -2.00,-102.00 -1.70,-102.50 -1.60,-103.20"/>
    </edge>
    <edge id=":gneJ24_0" function="internal">
        <lane id=":gneJ24_0_0" index="0" speed="6.08" length="7.74" shape="-1.60,-296.80 -1.30,-298.90 -0.40,-300.40 1.10,-301.30 3.20,-301.60"/>
    </edge>
    <edge id=":gneJ24_1" function="internal">
        <lane id=":gneJ24_1_0" index="0" speed="3.90" length="2.58" shape="3.20,-298.40 2.50,-298.30 2.00,-298.00 1.70,-297.50 1.60,-296.80"/>
    </edge>
    <edge id=":gneJ26_0" function="internal">
        <lane id=":gneJ26_0_0" index="0" speed="3.90" length="2.58" shape="98.40,-196.80 98.30,-197.50 98.00,-198.00 97.50,-198.30 96.80,-198.40"/>
    </edge>
    <edge id=":gneJ26_1" function="internal">
        <lane id=":gneJ26_1_0" index="0" speed="6.08" length="7.74" shape="96.80,-201.60 98.90,-201.30 100.40,-200.40 101.30,-198.90 101.60,-196.80"/>
    </edge>
    <edge id=":gneJ27_0" function="internal">
        <lane id=":gneJ27_0_0" index="0" speed="13.89" length="0.10" shape="300.00,-298.40 300.00,-298.40"/>
    </edge>
    <edge id=":gneJ27_1" function="internal">
        <lane id=":gneJ27_1_0" index="0" speed="13.89" length="0.10" shape="300.00,-301.60 300.00,-301.60"/>
    </edge>
    <edge id=":gneJ28_0" function="internal">
        <lane id=":gneJ28_0_0" index="0" speed="13.89" length="0.52" shape="398.43,400.34 398.41,400.19 398.40,400.09 398.40,399.98 398.40,399.83"/>
    </edge>
    <edge id=":gneJ28_1" function="internal">
        <lane id=":gneJ28_1_0" index="0" speed="13.89" length="0.17" shape="401.60,399.83 401.60,399.88 401.60,399.91 401.60,399.95 401.61,400.00"/>
    </edge>
    <edge id=":gneJ31_0" function="internal">
        <lane id=":gneJ31_0_0" index="0" speed="8.09" length="2.24" shape="501.39,-198.91 500.79,-198.62 500.36,-198.47 499.91,-198.41 499.24,-198.40"/>
    </edge>
    <edge id=":gneJ31_1" function="internal">
        <lane id=":gneJ31_1_0" index="0" speed="13.89" length="0.75" shape="499.24,-201.60 499.47,-201.60 499.62,-201.62 499.76,-201.67 499.96,-201.77"/>
    </edge>
    <edge id=":gneJ34_0" function="internal">
        <lane id=":gneJ34_0_0" index="0" speed="6.51" length="9.03" shape="498.40,-92.80 498.05,-95.25 497.00,-97.00 495.25,-98.05 492.80,-98.40"/>
    </edge>
    <edge id=":gneJ34_1" function="internal">
        <lane id=":gneJ34_1_0" index="0" speed="8.00" length="14.19" shape="498.40,-92.80 498.95,-96.65 500.60,-99.40 503.35,-101.05 507.20,-101.60"/>
    </edge>
    <edge id=":gneJ34_2" function="internal">
        <lane id=":gneJ34_2_0" index="0" speed="6.51" length="9.03" shape="507.20,-98.40 504.75,-98.05 503.00,-97.00 501.95,-95.25 501.60,-92.80"/>
    </edge>
    <edge id=":gneJ34_3" function="internal">
        <lane id=":gneJ34_3_0" index="0" speed="13.89" length="14.40" shape="507.20,-98.40 492.80,-98.40"/>
    </edge>
    <edge id=":gneJ34_4" function="internal">
        <lane id=":gneJ34_4_0" index="0" speed="13.89" length="14.40" shape="492.80,-101.60 507.20,-101.60"/>
    </edge>
    <edge id=":gneJ34_5" function="internal">
        <lane id=":gneJ34_5_0" index="0" speed="8.00" length="5.93" shape="492.80,-101.60 496.65,-101.05 498.40,-100.00"/>
    </edge>
    <edge id=":gneJ34_6" function="internal">
        <lane id=":gneJ34_6_0" index="0" speed="8.00" length="8.26" shape="498.40,-100.00 499.40,-99.40 501.05,-96.65 501.60,-92.80"/>
    </edge>
    <edge id=":gneJ38_0" function="internal">
        <lane id=":gneJ38_0_0" index="0" speed="13.89" length="0.10" shape="600.00,1.60 600.00,1.60"/>
    </edge>
    <edge id=":gneJ38_1" function="internal">
        <lane id=":gneJ38_1_0" index="0" speed="13.89" length="0.10" shape="600.00,-1.60 600.00,-1.60"/>
    </edge>
    <edge id=":gneJ4_0" function="internal">
        <lane id=":gneJ4_0_0" index="0" speed="6.51" length="9.03" shape="198.40,7.20 198.05,4.75 197.00,3.00 195.25,1.95 192.80,1.60"/>
    </edge>
    <edge id=":gneJ4_1" function="internal">
        <lane id=":gneJ4_1_0" index="0" speed="13.89" length="14.40" shape="198.40,7.20 198.40,-7.20"/>
    </edge>
    <edge id=":gneJ4_2" function="internal">
        <lane id=":gneJ4_2_0" index="0" speed="8.00" length="5.93" shape="198.40,7.20 198.95,3.35 200.00,1.60"/>
    </edge>
    <edge id=":gneJ4_12" function="internal">
        <lane id=":gneJ4_12_0" index="0" speed="8.00" length="8.26" shape="200.00,1.60 200.60,0.60 203.35,-1.05 207.20,-1.60"/>
    </edge>
    <edge id=":gneJ4_3" function="internal">
        <lane id=":gneJ4_3_0" index="0" speed="6.51" length="9.03" shape="207.20,1.60 204.75,1.95 203.00,3.00 201.95,4.75 201.60,7.20"/>
    </edge>
    <edge id=":gneJ4_4" function="internal">
        <lane id=":gneJ4_4_0" index="0" speed="13.89" length="14.40" shape="207.20,1.60 192.80,1.60"/>
    </edge>
    <edge id=":gneJ4_5" function="internal">
        <lane id=":gneJ4_5_0" index="0" speed="8.00" length="5.93" shape="207.20,1.60 203.35,1.05 201.60,0.00"/>
    </edge>
    <edge id=":gneJ4_13" function="internal">
        <lane id=":gneJ4_13_0" index="0" speed="8.00" length="8.26" shape="201.60,0.00 200.60,-0.60 198.95,-3.35 198.40,-7.20"/>
    </edge>
    <edge id=":gneJ4_6" function="internal">
        <lane id=":gneJ4_6_0" index="0" speed="6.51" length="9.03" shape="201.60,-7.20 201.95,-4.75 203.00,-3.00 204.75,-1.95 207.20,-1.60"/>
    </edge>
    <edge id=":gneJ4_7" function="internal">
        <lane id=":gneJ4_7_0" index="0" speed="13.89" length="14.40" shape="201.60,-7.20 201.60,7.20"/>
    </edge>
    <edge id=":gneJ4_8" function="internal">
        <lane id=":gneJ4_8_0" index="0" speed="8.00" length="5.93" shape="201.60,-7.20 201.05,-3.35 200.00,-1.60"/>
    </edge>
    <edge id=":gneJ4_14" function="internal">
        <lane id=":gneJ4_14_0" index="0" speed="8.00" length="8.26" shape="200.00,-1.60 199.40,-0.60 196.65,1.05 192.80,1.60"/>
    </edge>
    <edge id=":gneJ4_9" function="internal">
        <lane id=":gneJ4_9_0" index="0" speed="6.51" length="9.03" shape="192.80,-1.60 195.25,-1.95 197.00,-3.00 198.05,-4.75 198.40,-7.20"/>
    </edge>
    <edge id=":gneJ4_10" function="internal">
        <lane id=":gneJ4_10_0" index="0" speed="13.89" length="14.40" shape="192.80,-1.60 207.20,-1.60"/>
    </edge>
    <edge id=":gneJ4_11" function="internal">
        <lane id=":gneJ4_11_0" index="0" speed="8.00" length="5.93" shape="192.80,-1.60 196.65,-1.05 198.40,-0.00"/>
    </edge>
    <edge id=":gneJ4_15" function="internal">
        <lane id=":gneJ4_15_0" index="0" speed="8.00" length="8.26" shape="198.40,-0.00 199.40,0.60 201.05,3.35 201.60,7.20"/>
    </edge>
    <edge id=":gneJ40_0" function="internal">
        <lane id=":gneJ40_0_0" index="0" speed="3.95" length="3.61" shape="698.40,-294.82 698.26,-295.88 697.82,-296.47 697.10,-296.60 696.08,-296.25"/>
    </edge>
    <edge id=":gneJ40_1" function="internal">
        <lane id=":gneJ40_1_0" index="0" speed="6.16" length="10.83" shape="694.65,-299.12 697.69,-300.15 699.86,-299.78 701.17,-298.00 701.60,-294.82"/>
    </edge>
    <edge id=":gneJ42_0" function="internal">
        <lane id=":gneJ42_0_0" index="0" speed="6.49" length="14.35" shape="692.27,-1.60 696.83,-1.09 698.92,0.45 698.53,3.01 695.67,6.59"/>
    </edge>
    <edge id=":gneJ42_1" function="internal">
        <lane id=":gneJ42_1_0" index="0" speed="4.12" length="4.78" shape="693.41,4.33 694.36,3.14 694.49,2.28 693.79,1.77 692.27,1.60"/>
    </edge>
    <edge id=":gneJ44_0" function="internal">
        <lane id=":gneJ44_0_0" index="0" speed="6.63" length="3.77" shape="99.81,202.07 99.19,201.33 98.75,200.52 98.49,199.63 98.40,198.67"/>
    </edge>
    <edge id=":gneJ44_1" function="internal">
        <lane id=":gneJ44_1_0" index="0" speed="4.20" length="1.26" shape="101.60,198.67 101.63,198.99 101.72,199.29 101.86,199.56 102.07,199.81"/>
    </edge>
    <edge id=":gneJ5_0" function="internal">
        <lane id=":gneJ5_0_0" index="0" speed="6.08" length="7.74" shape="-1.60,3.20 -1.30,1.10 -0.40,-0.40 1.10,-1.30 3.20,-1.60"/>
    </edge>
    <edge id=":gneJ5_1" function="internal">
        <lane id=":gneJ5_1_0" index="0" speed="3.90" length="2.58" shape="3.20,1.60 2.50,1.70 2.00,2.00 1.70,2.50 1.60,3.20"/>
    </edge>
    <edge id=":gneJ51_0" function="internal">
        <lane id=":gneJ51_0_0" index="0" speed="7.64" length="2.50" shape="404.52,451.00 404.10,450.39 403.86,449.94 403.74,449.44 403.64,448.71"/>
    </edge>
    <edge id=":gneJ51_1" function="internal">
        <lane id=":gneJ51_1_0" index="0" speed="13.89" length="0.83" shape="406.83,448.36 406.86,448.61 406.90,448.77 406.98,448.92 407.12,449.13"/>
    </edge>
    <edge id=":gneJ52_0" function="internal">
        <lane id=":gneJ52_0_0" index="0" speed="6.41" length="4.48" shape="446.30,505.65 445.15,505.51 444.13,505.13 443.24,504.51 442.47,503.65"/>
    </edge>
    <edge id=":gneJ52_1" function="internal">
        <lane id=":gneJ52_1_0" index="0" speed="4.08" length="1.49" shape="445.06,501.78 445.32,502.07 445.62,502.27 445.96,502.40 446.34,502.45"/>
    </edge>
    <edge id=":gneJ53_0" function="internal">
        <lane id=":gneJ53_0_0" index="0" speed="7.23" length="2.87" shape="507.48,505.63 506.76,506.08 506.22,506.32 505.63,506.41 504.79,506.42"/>
    </edge>
    <edge id=":gneJ53_1" function="internal">
        <lane id=":gneJ53_1_0" index="0" speed="13.89" length="0.96" shape="504.83,503.22 505.11,503.21 505.31,503.18 505.49,503.10 505.73,502.96"/>
    </edge>
    <edge id=":gneJ54_0" function="internal">
        <lane id=":gneJ54_0_0" index="0" speed="6.33" length="4.86" shape="546.73,477.31 546.61,478.57 546.21,479.67 545.53,480.62 544.56,481.42"/>
    </edge>
    <edge id=":gneJ54_1" function="internal">
        <lane id=":gneJ54_1_0" index="0" speed="4.04" length="1.62" shape="542.81,478.74 543.13,478.47 543.36,478.15 543.49,477.79 543.53,477.37"/>
    </edge>
    <edge id=":gneJ55_0" function="internal">
        <lane id=":gneJ55_0_0" index="0" speed="6.07" length="7.89" shape="542.01,390.80 542.28,388.65 543.18,387.12 544.70,386.21 546.85,385.92"/>
    </edge>
    <edge id=":gneJ55_1" function="internal">
        <lane id=":gneJ55_1_0" index="0" speed="3.90" length="2.63" shape="546.83,389.12 546.11,389.22 545.60,389.52 545.30,390.03 545.21,390.75"/>
    </edge>
    <edge id=":gneJ6_0" function="internal">
        <lane id=":gneJ6_0_0" index="0" speed="6.08" length="7.74" shape="203.20,201.60 201.10,201.30 199.60,200.40 198.70,198.90 198.40,196.80"/>
    </edge>
    <edge id=":gneJ6_1" function="internal">
        <lane id=":gneJ6_1_0" index="0" speed="3.90" length="2.58" shape="201.60,196.80 201.70,197.50 202.00,198.00 202.50,198.30 203.20,198.40"/>
    </edge>
    <edge id=":gneJ7_0" function="internal">
        <lane id=":gneJ7_0_0" index="0" speed="6.08" length="7.74" shape="198.40,-196.80 198.70,-198.90 199.60,-200.40 201.10,-201.30 203.20,-201.60"/>
    </edge>
    <edge id=":gneJ7_1" function="internal">
        <lane id=":gneJ7_1_0" index="0" speed="3.90" length="2.58" shape="203.20,-198.40 202.50,-198.30 202.00,-198.00 201.70,-197.50 201.60,-196.80"/>
    </edge>
    <edge id=":gneJ8_0" function="internal">
        <lane id=":gneJ8_0_0" index="0" speed="3.90" length="2.58" shape="398.40,3.20 398.30,2.50 398.00,2.00 397.50,1.70 396.80,1.60"/>
    </edge>
    <edge id=":gneJ8_1" function="internal">
        <lane id=":gneJ8_1_0" index="0" speed="6.08" length="7.74" shape="396.80,-1.60 398.90,-1.30 400.40,-0.40 401.30,1.10 401.60,3.20"/>
    </edge>
    <edge id=":gneJ9_0" function="internal">
        <lane id=":gneJ9_0_0" index="0" speed="6.51" length="9.03" shape="-201.60,207.20 -201.95,204.75 -203.00,203.00 -204.75,201.95 -207.20,201.60"/>
    </edge>
    <edge id=":gneJ9_1" function="internal">
        <lane id=":gneJ9_1_0" index="0" speed="13.89" length="14.40" shape="-201.60,207.20 -201.60,192.80"/>
    </edge>
    <edge id=":gneJ9_2" function="internal">
        <lane id=":gneJ9_2_0" index="0" speed="8.00" length="5.93" shape="-201.60,207.20 -201.05,203.35 -200.00,201.60"/>
    </edge>
    <edge id=":gneJ9_12" function="internal">
        <lane id=":gneJ9_12_0" index="0" speed="8.00" length="8.26" shape="-200.00,201.60 -199.40,200.60 -196.65,198.95 -192.80,198.40"/>
    </edge>
    <edge id=":gneJ9_3" function="internal">
        <lane id=":gneJ9_3_0" index="0" speed="6.51" length="9.03" shape="-192.80,201.60 -195.25,201.95 -197.00,203.00 -198.05,204.75 -198.40,207.20"/>
    </edge>
    <edge id=":gneJ9_4" function="internal">
        <lane id=":gneJ9_4_0" index="0" speed="13.89" length="14.40" shape="-192.80,201.60 -207.20,201.60"/>
    </edge>
    <edge id=":gneJ9_5" function="internal">
        <lane id=":gneJ9_5_0" index="0" speed="8.00" length="5.93" shape="-192.80,201.60 -196.65,201.05 -198.40,200.00"/>
    </edge>
    <edge id=":gneJ9_13" function="internal">
        <lane id=":gneJ9_13_0" index="0" speed="8.00" length="8.26" shape="-198.40,200.00 -199.40,199.40 -201.05,196.65 -201.60,192.80"/>
    </edge>
    <edge id=":gneJ9_6" function="internal">
        <lane id=":gneJ9_6_0" index="0" speed="6.51" length="9.03" shape="-198.40,192.80 -198.05,195.25 -197.00,197.00 -195.25,198.05 -192.80,198.40"/>
    </edge>
    <edge id=":gneJ9_7" function="internal">
        <lane id=":gneJ9_7_0" index="0" speed="13.89" length="14.40" shape="-198.40,192.80 -198.40,207.20"/>
    </edge>
    <edge id=":gneJ9_8" function="internal">
        <lane id=":gneJ9_8_0" index="0" speed="8.00" length="5.93" shape="-198.40,192.80 -198.95,196.65 -200.00,198.40"/>
    </edge>
    <edge id=":gneJ9_14" function="internal">
        <lane id=":gneJ9_14_0" index="0" speed="8.00" length="8.26" shape="-200.00,198.40 -200.60,199.40 -203.35,201.05 -207.20,201.60"/>
    </edge>
    <edge id=":gneJ9_9" function="internal">
        <lane id=":gneJ9_9_0" index="0" speed="6.51" length="9.03" shape="-207.20,198.40 -204.75,198.05 -203.00,197.00 -201.95,195.25 -201.60,192.80"/>
    </edge>
    <edge id=":gneJ9_10" function="internal">
        <lane id=":gneJ9_10_0" index="0" speed="13.89" length="14.40" shape="-207.20,198.40 -192.80,198.40"/>
    </edge>
    <edge id=":gneJ9_11" function="internal">
        <lane id=":gneJ9_11_0" index="0" speed="8.00" length="5.93" shape="-207.20,198.40 -203.35,198.95 -201.60,200.00"/>
    </edge>
    <edge id=":gneJ9_15" function="internal">
        <lane id=":gneJ9_15_0" index="0" speed="8.00" length="8.26" shape="-201.60,200.00 -200.60,200.60 -198.95,203.35 -198.40,207.20"/>
    </edge>

    <edge id="-gneE10" from="gneJ5" to="gneJ11" priority="-1">
        <lane id="-gneE10_0" index="0" speed="13.89" length="189.60" shape="1.60,3.20 1.60,192.80"/>
    </edge>
    <edge id="-gneE11" from="gneJ14" to="gneJ11" priority="-1">
        <lane id="-gneE11_0" index="0" speed="13.89" length="130.77" shape="95.10,297.37 2.63,204.90"/>
    </edge>
    <edge id="-gneE12" from="gneJ15" to="gneJ14" priority="-1">
        <lane id="-gneE12_0" index="0" speed="13.89" length="285.60" shape="392.80,301.60 107.20,301.60"/>
    </edge>
    <edge id="-gneE13" from="gneJ17" to="gneJ16" priority="-1">
        <lane id="-gneE13_0" index="0" speed="13.89" length="496.80" shape="96.80,401.60 -400.00,401.60"/>
    </edge>
    <edge id="-gneE14" from="gneJ14" to="gneJ17" priority="-1">
        <lane id="-gneE14_0" index="0" speed="13.89" length="89.60" shape="101.60,307.20 101.60,396.80"/>
    </edge>
    <edge id="-gneE15" from="gneJ19" to="gneJ18" priority="-1">
        <lane id="-gneE15_0" index="0" speed="13.89" length="100.00" shape="-100.00,301.60 -200.00,301.60"/>
    </edge>
    <edge id="-gneE16" from="gneJ21" to="gneJ20" priority="-1">
        <lane id="-gneE16_0" index="0" speed="13.89" length="100.00" shape="-300.00,98.40 -200.00,98.40"/>
    </edge>
    <edge id="-gneE17" from="gneJ22" to="gneJ10" priority="-1">
        <lane id="-gneE17_0" index="0" speed="13.89" length="138.77" shape="-99.81,-97.93 -197.93,0.19"/>
    </edge>
    <edge id="-gneE18" from="gneJ23" to="gneJ22" priority="-1">
        <lane id="-gneE18_0" index="0" speed="13.89" length="95.47" shape="-3.20,-98.40 -98.67,-98.40"/>
    </edge>
    <edge id="-gneE19" from="gneJ24" to="gneJ23" priority="-1">
        <lane id="-gneE19_0" index="0" speed="13.89" length="193.60" shape="1.60,-296.80 1.60,-103.20"/>
    </edge>
    <edge id="-gneE2" from="gneJ5" to="gneJ4" priority="-1">
        <lane id="-gneE2_0" index="0" speed="13.89" length="189.60" shape="3.20,-1.60 192.80,-1.60"/>
    </edge>
    <edge id="-gneE20" from="gneJ26" to="gneJ25" priority="-1">
        <lane id="-gneE20_0" index="0" speed="13.89" length="96.80" shape="96.80,-198.40 0.00,-198.40"/>
    </edge>
    <edge id="-gneE21" from="gneJ27" to="gneJ24" priority="-1">
        <lane id="-gneE21_0" index="0" speed="13.89" length="296.80" shape="300.00,-298.40 3.20,-298.40"/>
    </edge>
    <edge id="-gneE22" from="gneJ15" to="gneJ28" priority="-1">
        <lane id="-gneE22_0" index="0" speed="13.89" length="92.63" shape="401.60,307.20 401.60,399.83"/>
    </edge>
    <edge id="-gneE23" from="gneJ8" to="gneJ15" priority="-1">
        <lane id="-gneE23_0" index="0" speed="13.89" length="289.60" shape="401.60,3.20 401.60,292.80"/>
    </edge>
    <edge id="-gneE24" from="gneJ29" to="gneJ15" priority="-1">
        <lane id="-gneE24_0" index="0" speed="13.89" length="192.80" shape="600.00,301.60 407.20,301.60"/>
    </edge>
    <edge id="-gneE25" from="gneJ30" to="gneJ6" priority="-1">
        <lane id="-gneE25_0" index="0" speed="13.89" length="96.80" shape="300.00,201.60 203.20,201.60"/>
    </edge>
    <edge id="-gneE26" from="gneJ31" to="gneJ7" priority="-1">
        <lane id="-gneE26_0" index="0" speed="13.89" length="296.04" shape="499.24,-198.40 203.20,-198.40"/>
    </edge>
    <edge id="-gneE27" from="gneJ32" to="gneJ27" priority="-1">
        <lane id="-gneE27_0" index="0" speed="13.89" length="300.00" shape="600.00,-298.40 300.00,-298.40"/>
    </edge>
    <edge id="-gneE28" from="gneJ34" to="gneJ33" priority="-1">
        <lane id="-gneE28_0" index="0" speed="13.89" length="392.80" shape="501.60,-92.80 501.60,300.00"/>
    </edge>
    <edge id="-gneE29" from="gneJ36" to="gneJ35" priority="-1">
        <lane id="-gneE29_0" index="0" speed="13.89" length="200.00" shape="700.00,201.60 500.00,201.60"/>
    </edge>
    <edge id="-gneE3" from="gneJ4" to="gneJ6" priority="-1">
        <lane id="-gneE3_0" index="0" speed="13.89" length="189.60" shape="201.60,7.20 201.60,196.80"/>
    </edge>
    <edge id="-gneE30" from="gneJ38" to="gneJ37" priority="-1">
        <lane id="-gneE30_0" index="0" speed="13.89" length="100.00" shape="600.00,1.60 500.00,1.60"/>
    </edge>
    <edge id="-gneE31" from="gneJ39" to="gneJ34" priority="-1">
        <lane id="-gneE31_0" index="0" speed="13.89" length="92.80" shape="600.00,-98.40 507.20,-98.40"/>
    </edge>
    <edge id="-gneE32" from="gneJ40" to="gneJ31" priority="-1">
        <lane id="-gneE32_0" index="0" speed="13.89" length="217.67" shape="696.08,-296.25 501.39,-198.91"/>
    </edge>
    <edge id="-gneE33" from="gneJ41" to="gneJ40" priority="-1">
        <lane id="-gneE33_0" index="0" speed="13.89" length="194.82" shape="698.40,-100.00 698.40,-294.82"/>
    </edge>
    <edge id="-gneE34" from="gneJ42" to="gneJ38" priority="-1">
        <lane id="-gneE34_0" index="0" speed="13.89" length="92.27" shape="692.27,1.60 600.00,1.60"/>
    </edge>
    <edge id="-gneE35" from="gneJ42" to="gneJ43" priority="-1">
        <lane id="-gneE35_0" index="0" speed="13.89" length="133.70" shape="695.67,6.59 601.13,101.13"/>
    </edge>
    <edge id="-gneE36" from="gneJ45" to="gneJ44" priority="-1">
        <lane id="-gneE36_0" index="0" speed="13.89" length="140.10" shape="198.87,301.13 99.81,202.07"/>
    </edge>
    <edge id="-gneE37" from="gneJ46" to="gneJ44" priority="-1">
        <lane id="-gneE37_0" index="0" speed="13.89" length="98.67" shape="101.60,100.00 101.60,198.67"/>
    </edge>
    <edge id="-gneE38" from="gneJ48" to="gneJ47" priority="-1">
        <lane id="-gneE38_0" index="0" speed="13.89" length="100.00" shape="-98.40,100.00 -98.40,200.00"/>
    </edge>
    <edge id="-gneE39" from="gneJ49" to="gneJ26" priority="-1">
        <lane id="-gneE39_0" index="0" speed="13.89" length="96.80" shape="98.40,-100.00 98.40,-196.80"/>
    </edge>
    <edge id="-gneE4" from="gneJ7" to="gneJ4" priority="-1">
        <lane id="-gneE4_0" index="0" speed="13.89" length="189.60" shape="201.60,-196.80 201.60,-7.20"/>
    </edge>
    <edge id="-gneE40" from="gneJ50" to="gneJ34" priority="-1">
        <lane id="-gneE40_0" index="0" speed="13.89" length="192.80" shape="300.00,-101.60 492.80,-101.60"/>
    </edge>
    <edge id="-gneE41" from="gneJ51" to="gneJ28" priority="-1">
        <lane id="-gneE41_0" index="0" speed="13.89" length="48.64" shape="403.64,448.71 398.43,400.34"/>
    </edge>
    <edge id="-gneE42" from="gneJ52" to="gneJ51" priority="-1">
        <lane id="-gneE42_0" index="0" speed="13.89" length="64.90" shape="442.47,503.65 404.52,451.00"/>
    </edge>
    <edge id="-gneE43" from="gneJ53" to="gneJ52" priority="-1">
        <lane id="-gneE43_0" index="0" speed="13.89" length="58.50" shape="504.79,506.42 446.30,505.65"/>
    </edge>