<?xml version="1.0" encoding="UTF-8"?>

<!-- generated on 03/22/21 15:23:56 by Eclipse SUMO netedit Version 1.7.0
<configuration xmlns:xsi="http://www.w3.org/2001/XMLSchema-instance" xsi:noNamespaceSchemaLocation="http://sumo.dlr.de/xsd/netconvertConfiguration.xsd">

    <output>
        <output-file value="E:\python%20simulation%20for%20traffic%20light%20signals\Test\city-2\city2.net.xml"/>
    </output>

    <processing>
        <offset.disable-normalization value="true"/>
    </processing>

    <junctions>
        <no-turnarounds value="true"/>
    </junctions>

    <report>
        <aggregate-warnings value="5"/>
    </report>

</configuration>
-->

<net version="1.6" junctionCornerDetail="5" limitTurnSpeed="5.50" xmlns:xsi="http://www.w3.org/2001/XMLSchema-instance" xsi:noNamespaceSchemaLocation="http://sumo.dlr.de/xsd/net_file.xsd">

    <location netOffset="0.00,0.00" convBoundary="-200.00,-200.00,600.00,500.00" origBoundary="10000000000.00,10000000000.00,-10000000000.00,-10000000000.00" projParameter="!"/>

    <edge id=":gneJ10_0" function="internal">
        <lane id=":gneJ10_0_0" index="0" speed="13.89" length="0.10" shape="298.40,100.00 298.40,100.00"/>
    </edge>
    <edge id=":gneJ10_1" function="internal">
        <lane id=":gneJ10_1_0" index="0" speed="13.89" length="0.10" shape="301.60,100.00 301.60,100.00"/>
    </edge>
    <edge id=":gneJ11_0" function="internal">
        <lane id=":gneJ11_0_0" index="0" speed="13.89" length="0.10" shape="400.00,1.60 400.00,1.60"/>
    </edge>
    <edge id=":gneJ11_1" function="internal">
        <lane id=":gneJ11_1_0" index="0" speed="13.89" length="0.10" shape="400.00,-1.60 400.00,-1.60"/>
    </edge>
    <edge id=":gneJ12_0" function="internal">
        <lane id=":gneJ12_0_0" index="0" speed="6.08" length="7.74" shape="203.20,1.60 201.10,1.30 199.60,0.40 198.70,-1.10 198.40,-3.20"/>
    </edge>
    <edge id=":gneJ12_1" function="internal">
        <lane id=":gneJ12_1_0" index="0" speed="3.90" length="2.58" shape="201.60,-3.20 201.70,-2.50 202.00,-2.00 202.50,-1.70 203.20,-1.60"/>
    </edge>
    <edge id=":gneJ13_0" function="internal">
        <lane id=":gneJ13_0_0" index="0" speed="13.89" length="0.10" shape="298.40,-100.00 298.40,-100.00"/>
    </edge>
    <edge id=":gneJ13_1" function="internal">
        <lane id=":gneJ13_1_0" index="0" speed="13.89" length="0.10" shape="301.60,-100.00 301.60,-100.00"/>
    </edge>
    <edge id=":gneJ14_0" function="internal">
        <lane id=":gneJ14_0_0" index="0" speed="6.08" length="7.74" shape="203.20,201.60 201.10,201.30 199.60,200.40 198.70,198.90 198.40,196.80"/>
    </edge>
    <edge id=":gneJ14_1" function="internal">
        <lane id=":gneJ14_1_0" index="0" speed="3.90" length="2.58" shape="201.60,196.80 201.70,197.50 202.00,198.00 202.50,198.30 203.20,198.40"/>
    </edge>
    <edge id=":gneJ15_0" function="internal">
        <lane id=":gneJ15_0_0" index="0" speed="6.08" length="7.74" shape="301.60,196.80 301.30,198.90 300.40,200.40 298.90,201.30 296.80,201.60"/>
    </edge>
    <edge id=":gneJ15_1" function="internal">
        <lane id=":gneJ15_1_0" index="0" speed="3.90" length="2.58" shape="296.80,198.40 297.50,198.30 298.00,198.00 298.30,197.50 298.40,196.80"/>
    </edge>
    <edge id=":gneJ16_0" function="internal">
        <lane id=":gneJ16_0_0" index="0" speed="6.08" length="7.74" shape="103.20,301.60 101.10,301.30 99.60,300.40 98.70,298.90 98.40,296.80"/>
    </edge>
    <edge id=":gneJ16_1" function="internal">
        <lane id=":gneJ16_1_0" index="0" speed="3.90" length="2.58" shape="101.60,296.80 101.70,297.50 102.00,298.00 102.50,298.30 103.20,298.40"/>
    </edge>
    <edge id=":gneJ17_0" function="internal">
        <lane id=":gneJ17_0_0" index="0" speed="13.89" length="0.10" shape="300.00,301.60 300.00,301.60"/>
    </edge>
    <edge id=":gneJ17_1" function="internal">
        <lane id=":gneJ17_1_0" index="0" speed="13.89" length="0.10" shape="300.00,298.40 300.00,298.40"/>
    </edge>
    <edge id=":gneJ18_0" function="internal">
        <lane id=":gneJ18_0_0" index="0" speed="6.08" length="7.74" shape="401.60,296.80 401.30,298.90 400.40,300.40 398.90,301.30 396.80,301.60"/>
    </edge>
    <edge id=":gneJ18_1" function="internal">
        <lane id=":gneJ18_1_0" index="0" speed="3.90" length="2.58" shape="396.80,298.40 397.50,298.30 398.00,298.00 398.30,297.50 398.40,296.80"/>
    </edge>
    <edge id=":gneJ19_0" function="internal">
        <lane id=":gneJ19_0_0" index="0" speed="6.08" length="7.74" shape="398.40,103.20 398.70,101.10 399.60,99.60 401.10,98.70 403.20,98.40"/>
    </edge>
    <edge id=":gneJ19_1" function="internal">
        <lane id=":gneJ19_1_0" index="0" speed="3.90" length="2.58" shape="403.20,101.60 402.50,101.70 402.00,102.00 401.70,102.50 401.60,103.20"/>
    </edge>
    <edge id=":gneJ20_0" function="internal">
        <lane id=":gneJ20_0_0" index="0" speed="6.08" length="7.74" shape="501.60,96.80 501.30,98.90 500.40,100.40 498.90,101.30 496.80,101.60"/>
    </edge>
    <edge id=":gneJ20_1" function="internal">
        <lane id=":gneJ20_1_0" index="0" speed="3.90" length="2.58" shape="496.80,98.40 497.50,98.30 498.00,98.00 498.30,97.50 498.40,96.80"/>
    </edge>
    <edge id=":gneJ26_0" function="internal">
        <lane id=":gneJ26_0_0" index="0" speed="6.08" length="7.74" shape="-98.40,296.80 -98.70,298.90 -99.60,300.40 -101.10,301.30 -103.20,301.60"/>
    </edge>
    <edge id=":gneJ26_1" function="internal">
        <lane id=":gneJ26_1_0" index="0" speed="3.90" length="2.58" shape="-103.20,298.40 -102.50,298.30 -102.00,298.00 -101.70,297.50 -101.60,296.80"/>
    </edge>
    <edge id=":gneJ27_0" function="internal">
        <lane id=":gneJ27_0_0" index="0" speed="6.08" length="7.74" shape="-101.60,103.20 -101.30,101.10 -100.40,99.60 -98.90,98.70 -96.80,98.40"/>
    </edge>
    <edge id=":gneJ27_1" function="internal">
        <lane id=":gneJ27_1_0" index="0" speed="3.90" length="2.58" shape="-96.80,101.60 -97.50,101.70 -98.00,102.00 -98.30,102.50 -98.40,103.20"/>
    </edge>
    <edge id=":gneJ29_0" function="internal">
        <lane id=":gneJ29_0_0" index="0" speed="6.08" length="7.74" shape="1.60,396.80 1.30,398.90 0.40,400.40 -1.10,401.30 -3.20,401.60"/>
    </edge>
    <edge id=":gneJ29_1" function="internal">
        <lane id=":gneJ29_1_0" index="0" speed="3.90" length="2.58" shape="-3.20,398.40 -2.50,398.30 -2.00,398.00 -1.70,397.50 -1.60,396.80"/>
    </edge>
    <edge id=":gneJ34_0" function="internal">
        <lane id=":gneJ34_0_0" index="0" speed="6.63" length="3.77" shape="101.33,401.60 100.37,401.51 99.48,401.25 98.67,400.81 97.93,400.19"/>
    </edge>
    <edge id=":gneJ34_1" function="internal">
        <lane id=":gneJ34_1_0" index="0" speed="4.20" length="1.26" shape="100.19,397.93 100.44,398.14 100.71,398.28 101.01,398.37 101.33,398.40"/>
    </edge>
    <edge id=":gneJ35_0" function="internal">
        <lane id=":gneJ35_0_0" index="0" speed="13.89" length="0.10" shape="200.00,401.60 200.00,401.60"/>
    </edge>
    <edge id=":gneJ35_1" function="internal">
        <lane id=":gneJ35_1_0" index="0" speed="13.89" length="0.10" shape="200.00,398.40 200.00,398.40"/>
    </edge>
    <edge id=":gneJ36_0" function="internal">
        <lane id=":gneJ36_0_0" index="0" speed="6.63" length="3.77" shape="402.07,400.19 401.33,400.81 400.52,401.25 399.63,401.51 398.67,401.60"/>
    </edge>
    <edge id=":gneJ36_1" function="internal">
        <lane id=":gneJ36_1_0" index="0" speed="4.20" length="1.26" shape="398.67,398.40 398.99,398.37 399.29,398.28 399.56,398.14 399.81,397.93"/>
    </edge>
    <edge id=":gneJ37_0" function="internal">
        <lane id=":gneJ37_0_0" index="0" speed="4.12" length="4.78" shape="598.40,207.73 598.23,206.21 597.72,205.51 596.86,205.64 595.67,206.59"/>
    </edge>
    <edge id=":gneJ37_1" function="internal">
        <lane id=":gneJ37_1_0" index="0" speed="6.49" length="14.35" shape="593.41,204.33 596.99,201.47 599.55,201.08 601.09,203.17 601.60,207.73"/>
    </edge>
    <edge id=":gneJ38_0" function="internal">
        <lane id=":gneJ38_0_0" index="0" speed="6.08" length="7.74" shape="601.60,496.80 601.30,498.90 600.40,500.40 598.90,501.30 596.80,501.60"/>
    </edge>
    <edge id=":gneJ38_1" function="internal">
        <lane id=":gneJ38_1_0" index="0" speed="3.90" length="2.58" shape="596.80,498.40 597.50,498.30 598.00,498.00 598.30,497.50 598.40,496.80"/>
    </edge>
    <edge id=":gneJ4_0" function="internal">
        <lane id=":gneJ4_0_0" index="0" speed="6.51" length="9.03" shape="-1.60,107.20 -1.95,104.75 -3.00,103.00 -4.75,101.95 -7.20,101.60"/>
    </edge>
    <edge id=":gneJ4_1" function="internal">
        <lane id=":gneJ4_1_0" index="0" speed="8.00" length="14.19" shape="-1.60,107.20 -1.05,103.35 0.60,100.60 3.35,98.95 7.20,98.40"/>
    </edge>
    <edge id=":gneJ4_2" function="internal">
        <lane id=":gneJ4_2_0" index="0" speed="6.51" length="9.03" shape="7.20,101.60 4.75,101.95 3.00,103.00 1.95,104.75 1.60,107.20"/>
    </edge>
    <edge id=":gneJ4_3" function="internal">
        <lane id=":gneJ4_3_0" index="0" speed="13.89" length="14.40" shape="7.20,101.60 -7.20,101.60"/>
    </edge>
    <edge id=":gneJ4_4" function="internal">
        <lane id=":gneJ4_4_0" index="0" speed="13.89" length="14.40" shape="-7.20,98.40 7.20,98.40"/>
    </edge>
    <edge id=":gneJ4_5" function="internal">
        <lane id=":gneJ4_5_0" index="0" speed="8.00" length="5.93" shape="-7.20,98.40 -3.35,98.95 -1.60,100.00"/>
    </edge>
    <edge id=":gneJ4_6" function="internal">
        <lane id=":gneJ4_6_0" index="0" speed="8.00" length="8.26" shape="-1.60,100.00 -0.60,100.60 1.05,103.35 1.60,107.20"/>
    </edge>
    <edge id=":gneJ40_0" function="internal">
        <lane id=":gneJ40_0_0" index="0" speed="6.69" length="3.84" shape="498.40,201.33 498.44,200.20 498.62,199.43 499.04,198.75 499.81,197.93"/>
    </edge>
    <edge id=":gneJ40_1" function="internal">
        <lane id=":gneJ40_1_0" index="0" speed="4.20" length="1.26" shape="502.07,200.19 501.86,200.44 501.72,200.71 501.63,201.01 501.60,201.33"/>
    </edge>
    <edge id=":gneJ41_0" function="internal">
        <lane id=":gneJ41_0_0" index="0" speed="6.63" length="3.77" shape="601.60,98.67 601.51,99.63 601.25,100.52 600.81,101.33 600.19,102.07"/>
    </edge>
    <edge id=":gneJ41_1" function="internal">
        <lane id=":gneJ41_1_0" index="0" speed="4.15" length="1.22" shape="597.93,99.81 598.40,98.67"/>
    </edge>
    <edge id=":gneJ44_0" function="internal">
        <lane id=":gneJ44_0_0" index="0" speed="6.08" length="7.74" shape="298.40,-196.80 298.70,-198.90 299.60,-200.40 301.10,-201.30 303.20,-201.60"/>
    </edge>
    <edge id=":gneJ44_1" function="internal">
        <lane id=":gneJ44_1_0" index="0" speed="3.90" length="2.58" shape="303.20,-198.40 302.50,-198.30 302.00,-198.00 301.70,-197.50 301.60,-196.80"/>
    </edge>
    <edge id=":gneJ5_0" function="internal">
        <lane id=":gneJ5_0_0" index="0" speed="6.51" length="9.03" shape="98.40,107.20 98.05,104.75 97.00,103.00 95.25,101.95 92.80,101.60"/>
    </edge>
    <edge id=":gneJ5_1" function="internal">
        <lane id=":gneJ5_1_0" index="0" speed="13.89" length="14.40" shape="98.40,107.20 98.40,92.80"/>
    </edge>
    <edge id=":gneJ5_2" function="internal">
        <lane id=":gneJ5_2_0" index="0" speed="8.00" length="5.93" shape="98.40,107.20 98.95,103.35 100.00,101.60"/>
    </edge>
    <edge id=":gneJ5_12" function="internal">
        <lane id=":gneJ5_12_0" index="0" speed="8.00" length="8.26" shape="100.00,101.60 100.60,100.60 103.35,98.95 107.20,98.40"/>
    </edge>
    <edge id=":gneJ5_3" function="internal">
        <lane id=":gneJ5_3_0" index="0" speed="6.51" length="9.03" shape="107.20,101.60 104.75,101.95 103.00,103.00 101.95,104.75 101.60,107.20"/>
    </edge>
    <edge id=":gneJ5_4" function="internal">
        <lane id=":gneJ5_4_0" index="0" speed="13.89" length="14.40" shape="107.20,101.60 92.80,101.60"/>
    </edge>
    <edge id=":gneJ5_5" function="internal">
        <lane id=":gneJ5_5_0" index="0" speed="8.00" length="5.93" shape="107.20,101.60 103.35,101.05 101.60,100.00"/>
    </edge>
    <edge id=":gneJ5_13" function="internal">
        <lane id=":gneJ5_13_0" index="0" speed="8.00" length="8.26" shape="101.60,100.00 100.60,99.40 98.95,96.65 98.40,92.80"/>
    </edge>
    <edge id=":gneJ5_6" function="internal">
        <lane id=":gneJ5_6_0" index="0" speed="6.51" length="9.03" shape="101.60,92.80 101.95,95.25 103.00,97.00 104.75,98.05 107.20,98.40"/>
    </edge>
    <edge id=":gneJ5_7" function="internal">
        <lane id=":gneJ5_7_0" index="0" speed="13.89" length="14.40" shape="101.60,92.80 101.60,107.20"/>
    </edge>
    <edge id=":gneJ5_8" function="internal">
        <lane id=":gneJ5_8_0" index="0" speed="8.00" length="5.93" shape="101.60,92.80 101.05,96.65 100.00,98.40"/>
    </edge>
    <edge id=":gneJ5_14" function="internal">
        <lane id=":gneJ5_14_0" index="0" speed="8.00" length="8.26" shape="100.00,98.40 99.40,99.40 96.65,101.05 92.80,101.60"/>
    </edge>
    <edge id=":gneJ5_9" function="internal">
        <lane id=":gneJ5_9_0" index="0" speed="6.51" length="9.03" shape="92.80,98.40 95.25,98.05 97.00,97.00 98.05,95.25 98.40,92.80"/>
    </edge>
    <edge id=":gneJ5_10" function="internal">
        <lane id=":gneJ5_10_0" index="0" speed="13.89" length="14.40" shape="92.80,98.40 107.20,98.40"/>
    </edge>
    <edge id=":gneJ5_11" function="internal">
        <lane id=":gneJ5_11_0" index="0" speed="8.00" length="5.93" shape="92.80,98.40 96.65,98.95 98.40,100.00"/>
    </edge>
    <edge id=":gneJ5_15" function="internal">
        <lane id=":gneJ5_15_0" index="0" speed="8.00" length="8.26" shape="98.40,100.00 99.40,100.60 101.05,103.35 101.60,107.20"/>
    </edge>
    <edge id=":gneJ6_0" function="internal">
        <lane id=":gneJ6_0_0" index="0" speed="3.90" length="2.58" shape="198.40,103.20 198.30,102.50 198.00,102.00 197.50,101.70 196.80,101.60"/>
    </edge>
    <edge id=":gneJ6_1" function="internal">
        <lane id=":gneJ6_1_0" index="0" speed="6.08" length="7.74" shape="196.80,98.40 198.90,98.70 200.40,99.60 201.30,101.10 201.60,103.20"/>
    </edge>
    <edge id=":gneJ7_0" function="internal">
        <lane id=":gneJ7_0_0" index="0" speed="13.89" length="0.10" shape="98.40,200.00 98.40,200.00"/>
    </edge>
    <edge id=":gneJ7_1" function="internal">
        <lane id=":gneJ7_1_0" index="0" speed="13.89" length="0.10" shape="101.60,200.00 101.60,200.00"/>
    </edge>
    <edge id=":gneJ8_0" function="internal">
        <lane id=":gneJ8_0_0" index="0" speed="6.51" length="9.03" shape="98.40,7.20 98.05,4.75 97.00,3.00 95.25,1.95 92.80,1.60"/>
    </edge>
    <edge id=":gneJ8_1" function="internal">
        <lane id=":gneJ8_1_0" index="0" speed="13.89" length="14.40" shape="98.40,7.20 98.40,-7.20"/>
    </edge>
    <edge id=":gneJ8_2" function="internal">
        <lane id=":gneJ8_2_0" index="0" speed="13.89" length="14.40" shape="101.60,-7.20 101.60,7.20"/>
    </edge>
    <edge id=":gneJ8_3" function="internal">
        <lane id=":gneJ8_3_0" index="0" speed="8.00" length="5.93" shape="101.60,-7.20 101.05,-3.35 100.00,-1.60"/>
    </edge>
    <edge id=":gneJ8_6" function="internal">
        <lane id=":gneJ8_6_0" index="0" speed="8.00" length="8.26" shape="100.00,-1.60 99.40,-0.60 96.65,1.05 92.80,1.60"/>
    </edge>
    <edge id=":gneJ8_4" function="internal">
        <lane id=":gneJ8_4_0" index="0" speed="6.51" length="9.03" shape="92.80,-1.60 95.25,-1.95 97.00,-3.00 98.05,-4.75 98.40,-7.20"/>
    </edge>
    <edge id=":gneJ8_5" function="internal">
        <lane id=":gneJ8_5_0" index="0" speed="8.00" length="14.19" shape="92.80,-1.60 96.65,-1.05 99.40,0.60 101.05,3.35 101.60,7.20"/>
    </edge>
    <edge id=":gneJ9_0" function="internal">
        <lane id=":gneJ9_0_0" index="0" speed="6.51" length="9.03" shape="298.40,7.20 298.05,4.75 297.00,3.00 295.25,1.95 292.80,1.60"/>
    </edge>
    <edge id=":gneJ9_1" function="internal">
        <lane id=":gneJ9_1_0" index="0" speed="13.89" length="14.40" shape="298.40,7.20 298.40,-7.20"/>
    </edge>
    <edge id=":gneJ9_2" function="internal">
        <lane id=":gneJ9_2_0" index="0" speed="8.00" length="5.93" shape="298.40,7.20 298.95,3.35 300.00,1.60"/>
    </edge>
    <edge id=":gneJ9_12" function="internal">
        <lane id=":gneJ9_12_0" index="0" speed="8.00" length="8.26" shape="300.00,1.60 300.60,0.60 303.35,-1.05 307.20,-1.60"/>
    </edge>
    <edge id=":gneJ9_3" function="internal">
        <lane id=":gneJ9_3_0" index="0" speed="6.51" length="9.03" shape="307.20,1.60 304.75,1.95 303.00,3.00 301.95,4.75 301.60,7.20"/>
    </edge>
    <edge id=":gneJ9_4" function="internal">
        <lane id=":gneJ9_4_0" index="0" speed="13.89" length="14.40" shape="307.20,1.60 292.80,1.60"/>
    </edge>
    <edge id=":gneJ9_5" function="internal">
        <lane id=":gneJ9_5_0" index="0" speed="8.00" length="5.93" shape="307.20,1.60 303.35,1.05 301.60,0.00"/>
    </edge>
    <edge id=":gneJ9_13" function="internal">
        <lane id=":gneJ9_13_0" index="0" speed="8.00" length="8.26" shape="301.60,0.00 300.60,-0.60 298.95,-3.35 298.40,-7.20"/>
    </edge>
    <edge id=":gneJ9_6" function="internal">
        <lane id=":gneJ9_6_0" index="0" speed="6.51" length="9.03" shape="301.60,-7.20 301.95,-4.75 303.00,-3.00 304.75,-1.95 307.20,-1.60"/>
    </edge>
    <edge id=":gneJ9_7" function="internal">
        <lane id=":gneJ9_7_0" index="0" speed="13.89" length="14.40" shape="301.60,-7.20 301.60,7.20"/>
    </edge>
    <edge id=":gneJ9_8" function="internal">
        <lane id=":gneJ9_8_0" index="0" speed="8.00" length="5.93" shape="301.60,-7.20 301.05,-3.35 300.00,-1.60"/>
    </edge>
    <edge id=":gneJ9_14" function="internal">
        <lane id=":gneJ9_14_0" index="0" speed="8.00" length="8.26" shape="300.00,-1.60 299.40,-0.60 296.65,1.05 292.80,1.60"/>
    </edge>
    <edge id=":gneJ9_9" function="internal">
        <lane id=":gneJ9_9_0" index="0" speed="6.51" length="9.03" shape="292.80,-1.60 295.25,-1.95 297.00,-3.00 298.05,-4.75 298.40,-7.20"/>
    </edge>
    <edge id=":gneJ9_10" function="internal">
        <lane id=":gneJ9_10_0" index="0" speed="13.89" length="14.40" shape="292.80,-1.60 307.20,-1.60"/>
    </edge>
    <edge id=":gneJ9_11" function="internal">
        <lane id=":gneJ9_11_0" index="0" speed="8.00" length="5.93" shape="292.80,-1.60 296.65,-1.05 298.40,-0.00"/>
    </edge>
    <edge id=":gneJ9_15" function="internal">
        <lane id=":gneJ9_15_0" index="0" speed="8.00" length="8.26" shape="298.40,-0.00 299.40,0.60 301.05,3.35 301.60,7.20"/>
    </edge>

    <edge id="-gneE10" from="gneJ14" to="gneJ6" priority="-1">
        <lane id="-gneE10_0" index="0" speed="13.89" length="93.60" shape="198.40,196.80 198.40,103.20"/>
    </edge>
    <edge id="-gneE11" from="gneJ15" to="gneJ14" priority="-1">
        <lane id="-gneE11_0" index="0" speed="13.89" length="93.60" shape="296.80,201.60 203.20,201.60"/>
    </edge>
    <edge id="-gneE12" from="gneJ10" to="gneJ15" priority="-1">
        <lane id="-gneE12_0" index="0" speed="13.89" length="96.80" shape="301.60,100.00 301.60,196.80"/>
    </edge>
    <edge id="-gneE13" from="gneJ7" to="gneJ16" priority="-1">
        <lane id="-gneE13_0" index="0" speed="13.89" length="96.80" shape="101.60,200.00 101.60,296.80"/>
    </edge>
    <edge id="-gneE14" from="gneJ17" to="gneJ16" priority="-1">
        <lane id="-gneE14_0" index="0" speed="13.89" length="196.80" shape="300.00,301.60 103.20,301.60"/>
    </edge>
    <edge id="-gneE15" from="gneJ18" to="gneJ17" priority="-1">
        <lane id="-gneE15_0" index="0" speed="13.89" length="96.80" shape="396.80,301.60 300.00,301.60"/>
    </edge>
    <edge id="-gneE16" from="gneJ19" to="gneJ18" priority="-1">
        <lane id="-gneE16_0" index="0" speed="13.89" length="193.60" shape="401.60,103.20 401.60,296.80"/>
    </edge>
    <edge id="-gneE17" from="gneJ20" to="gneJ19" priority="-1">
        <lane id="-gneE17_0" index="0" speed="13.89" length="93.60" shape="496.80,101.60 403.20,101.60"/>
    </edge>
    <edge id="-gneE18" from="gneJ21" to="gneJ20" priority="-1">
        <lane id="-gneE18_0" index="0" speed="13.89" length="196.80" shape="501.60,-100.00 501.60,96.80"/>
    </edge>
    <edge id="-gneE19" from="gneJ22" to="gneJ11" priority="-1">
        <lane id="-gneE19_0" index="0" speed="13.89" length="100.00" shape="500.00,1.60 400.00,1.60"/>
    </edge>
    <edge id="-gneE2" from="gneJ5" to="gneJ4" priority="-1">
        <lane id="-gneE2_0" index="0" speed="13.89" length="85.60" shape="92.80,101.60 7.20,101.60"/>
    </edge>
    <edge id="-gneE20" from="gneJ23" to="gneJ8" priority="-1">
        <lane id="-gneE20_0" index="0" speed="13.89" length="192.80" shape="101.60,-200.00 101.60,-7.20"/>
    </edge>
    <edge id="-gneE21" from="gneJ24" to="gneJ12" priority="-1">
        <lane id="-gneE21_0" index="0" speed="13.89" length="196.80" shape="201.60,-200.00 201.60,-3.20"/>
    </edge>
    <edge id="-gneE22" from="gneJ26" to="gneJ25" priority="-1">
        <lane id="-gneE22_0" index="0" speed="13.89" length="96.80" shape="-103.20,301.60 -200.00,301.60"/>
    </edge>
    <edge id="-gneE23" from="gneJ27" to="gneJ26" priority="-1">
        <lane id="-gneE23_0" index="0" speed="13.89" length="193.60" shape="-98.40,103.20 -98.40,296.80"/>
    </edge>
    <edge id="-gneE24" from="gneJ4" to="gneJ27" priority="-1">
        <lane id="-gneE24_0" index="0" speed="13.89" length="89.60" shape="-7.20,101.60 -96.80,101.60"/>
    </edge>
    <edge id="-gneE25" from="gneJ29" to="gneJ28" priority="-1">
        <lane id="-gneE25_0" index="0" speed="13.89" length="196.80" shape="-3.20,401.60 -200.00,401.60"/>
    </edge>
    <edge id="-gneE26" from="gneJ4" to="gneJ29" priority="-1">
        <lane id="-gneE26_0" index="0" speed="13.89" length="289.60" shape="1.60,107.20 1.60,396.80"/>
    </edge>
    <edge id="-gneE29" from="gneJ8" to="gneJ32" priority="-1">
        <lane id="-gneE29_0" index="0" speed="13.89" length="292.80" shape="92.80,1.60 -200.00,1.60"/>
    </edge>
    <edge id="-gneE3" from="gneJ5" to="gneJ6" priority="-1">
        <lane id="-gneE3_0" index="0" speed="13.89" length="89.60" shape="107.20,98.40 196.80,98.40"/>
    </edge>
    <edge id="-gneE30" from="gneJ34" to="gneJ33" priority="-1">
        <lane id="-gneE30_0" index="0" speed="13.89" length="140.10" shape="97.93,400.19 -1.13,301.13"/>
    </edge>
    <edge id="-gneE31" from="gneJ35" to="gneJ34" priority="-1">
        <lane id="-gneE31_0" index="0" speed="13.89" length="98.67" shape="200.00,401.60 101.33,401.60"/>
    </edge>
    <edge id="-gneE32" from="gneJ36" to="gneJ35" priority="-1">
        <lane id="-gneE32_0" index="0" speed="13.89" length="198.67" shape="398.67,401.60 200.00,401.60"/>
    </edge>
    <edge id="-gneE33" from="gneJ37" to="gneJ36" priority="-1">
        <lane id="-gneE33_0" index="0" speed="13.89" length="273.79" shape="595.67,206.59 402.07,400.19"/>
    </edge>
    <edge id="-gneE34" from="gneJ38" to="gneJ37" priority="-1">
        <lane id="-gneE34_0" index="0" speed="13.89" length="289.07" shape="598.40,496.80 598.40,207.73"/>
    </edge>
    <edge id="-gneE35" from="gneJ40" to="gneJ39" priority="-1">
        <lane id="-gneE35_0" index="0" speed="13.89" length="98.67" shape="501.60,201.33 501.60,300.00"/>
    </edge>
    <edge id="-gneE36" from="gneJ41" to="gneJ40" priority="-1">
        <lane id="-gneE36_0" index="0" speed="13.89" length="138.77" shape="600.19,102.07 502.07,200.19"/>
    </edge>
    <edge id="-gneE37" from="gneJ42" to="gneJ41" priority="-1">
        <lane id="-gneE37_0" index="0" speed="13.89" length="198.67" shape="601.60,-100.00 601.60,98.67"/>
    </edge>
    <edge id="-gneE38" from="gneJ38" to="gneJ43" priority="-1">
        <lane id="-gneE38_0" index="0" speed="13.89" length="796.80" shape="596.80,501.60 -200.00,501.60"/>
    </edge>
    <edge id="-gneE39" from="gneJ44" to="gneJ13" priority="-1">
        <lane id="-gneE39_0" index="0" speed="13.89" length="96.80" shape="301.60,-196.80 301.60,-100.00"/>
    </edge>
    <edge id="-gneE4" from="gneJ5" to="gneJ7" priority="-1">
        <lane id="-gneE4_0" index="0" speed="13.89" length="92.80" shape="101.60,107.20 101.60,200.00"/>
    </edge>
    <edge id="-gneE40" from="gneJ45" to="gneJ44" priority="-1">
        <lane id="-gneE40_0" index="0" speed="13.89" length="296.80" shape="600.00,-198.40 303.20,-198.40"/>
    </edge>
    <edge id="-gneE5" from="gneJ8" to="gneJ5" priority="-1">
        <lane id="-gneE5_0" index="0" speed="13.89" length="85.60" shape="101.60,7.20 101.60,92.80"/>
    </edge>
    <edge id="-gneE6" from="gneJ10" to="gneJ9" priority="-1">
        <lane id="-gneE6_0" index="0" speed="13.89" length="92.80" shape="298.40,100.00 298.40,7.20"/>
    </edge>
    <edge id="-gneE7" from="gneJ11" to="gneJ9" priority="-1">
        <lane id="-gneE7_0" index="0" speed="13.89" length="92.80" shape="400.00,1.60 307.20,1.60"/>
    </edge>
    <edge id="-gneE8" from="gneJ12" to="gneJ9" priority="-1">
        <lane id="-gneE8_0" index="0" speed="13.89" length="89.60" shape="203.20,-1.60 292.80,-1.60"/>
    </edge>
    <edge id="-gneE9" from="gneJ13" to="gneJ9" priority="-1">
        <lane id="-gneE9_0" index="0" speed="13.89" length="92.80" shape="301.60,-100.00 301.60,-7.20"/>
    </edge>
    <edge id="gneE10" from="gneJ6" to="gneJ14" priority="-1">
        <lane id="gneE10_0" index="0" speed="13.89" length="93.60" shape="201.60,103.20 201.60,196.80"/>
    </edge>
    <edge id="gneE11" from="gneJ14" to="gneJ15" priority="-1">
        <lane id="gneE11_0" index="0" speed="13.89" length="93.60" shape="203.20,198.40 296.80,198.40"/>
    </edge>
    <edge id="gneE12" from="gneJ15" to="gneJ10" priority="-1">
        <lane id="gneE12_0" index="0" speed="13.89" length="96.80" shape="298.40,196.80 298.40,100.00"/>
    </edge>
    <edge id="gneE13" from="gneJ16" to="gneJ7" priority="-1">
        <lane id="gneE13_0" index="0" speed="13.89" length="96.80" shape="98.40,296.80 98.40,200.00"/>
    </edge>
    <edge id="gneE14" from="gneJ16" to="gneJ17" priority="-1">
        <lane id="gneE14_0" index="0" speed="13.89" length="196.80" shape="103.20,298.40 300.00,298.40"/>
    </edge>
    <edge id="gneE15" from="gneJ17" to="gneJ18" priority="-1">
        <lane id="gneE15_0" index="0" speed="13.89" length="96.80" shape="300.00,298.40 396.80,298.40"/>
    </edge>
    <edge id="gneE16" from="gneJ18" to="gneJ19" priority="-1">
        <lane id="gneE16_0" index="0" speed="13.89" length="193.60" shape="398.40,296.80 398.40,103.20"/>
    </edge>
    <edge id="gneE17" from="gneJ19" to="gneJ20" priority="-1">
        <lane id="gneE17_0" index="0" speed="13.89" length="93.60" shape="403.20,98.40 496.80,98.40"/>
    </edge>
    <edge id="gneE18" from="gneJ20" to="gneJ21" priority="-1">
        <lane id="gneE18_0" index="0" speed="13.89" length="196.80" shape="498.40,96.80 498.40,-100.00"/>
    </edge>
    <edge id="gneE19" from="gneJ11" to="gneJ22" priority="-1">
        <lane id="gneE19_0" index="0" speed="13.89" length="100.00" shape="400.00,-1.60 500.00,-1.60"/>
    </edge>
    <edge id="gneE2" from="gneJ4" to="gneJ5" priority="-1">
        <lane id="gneE2_0" index="0" speed="13.89" length="85.60" shape="7.20,98.40 92.80,98.40"/>
    </edge>
    <edge id="gneE20" from="gneJ8" to="gneJ23" priority="-1">
        <lane id="gneE20_0" index="0" speed="13.89" length="192.80" shape="98.40,-7.20 98.40,-200.00"/>
    </edge>
    <edge id="gneE21" from="gneJ12" to="gneJ24" priority="-1">
        <lane id="gneE21_0" index="0" speed="13.89" length="196.80" shape="198.40,-3.20 198.40,-200.00"/>
    </edge>
    <edge id="gneE22" from="gneJ25" to="gneJ26" priority="-1">
        <lane id="gneE22_0" index="0" speed="13.89" length="96.80" shape="-200.00,298.40 -103.20,298.40"/>
    </edge>
    <edge id="gneE23" from="gneJ26" to="gneJ27" priority="-1">
        <lane id="gneE23_0" index="0" speed="13.89" length="193.60" shape="-101.60,296.80 -101.60,103.20"/>
    </edge>
    <edge id="gneE24" from="gneJ27" to="gneJ4" priority="-1">
        <lane id="gneE24_0" index="0" speed="13.89" length="89.60" shape="-96.80,98.40 -7.20,98.40"/>
    </edge>
    <edge id="gneE25" from="gneJ28" to="gneJ29" priority="-1">
        <lane id="gneE25_0" index="0" speed="13.89" length="196.80" shape="-200.00,398.40 -3.20,398.40"/>
    </edge>
    <edge id="gneE26" from="gneJ29" to="gneJ4" priority="-1">
        <lane id="gneE26_0" index="0" speed="13.89" length="289.60" shape="-1.60,396.80 -1.60,107.20"/>
    </edge>
    <edge id="gneE29" from="gneJ32" to="gneJ8" priority="-1">
        <lane id="gneE29_0" index="0" speed="13.89" length="292.80" shape="-200.00,-1.60 92.80,-1.60"/>
    </edge>
    <edge id="gneE3" from="gneJ6" to="gneJ5" priority="-1">
        <lane id="gneE3_0" index="0" speed="13.89" length="89.60" shape="196.80,101.60 107.20,101.60"/>
    </edge>
    <edge id="gneE30" from="gneJ33" to="gneJ34" priority="-1">
        <lane id="gneE30_0" index="0" speed="13.89" length="140.10" shape="1.13,298.87 100.19,397.93"/>
    </edge>
    <edge id="gneE31" from="gneJ34" to="gneJ35" priority="-1">
        <lane id="gneE31_0" index="0" speed="13.89" length="98.67" shape="101.33,398.40 200.00,398.40"/>
    </edge>
    <edge id="gneE32" from="gneJ35" to="gneJ36" priority="-1">
        <lane id="gneE32_0" index="0" speed="13.89" length="198.67" shape="200.00,398.40 398.67,398.40"/>
    </edge>
    <edge id="gneE33" from="gneJ36" to="gneJ37" priority="-1">