<?xml version="1.0" encoding="UTF-8"?>

<!-- generated on 03/22/21 14:27:08 by Eclipse SUMO netedit Version 1.8.0
<configuration xmlns:xsi="http://www.w3.org/2001/XMLSchema-instance" xsi:noNamespaceSchemaLocation="http://sumo.dlr.de/xsd/netconvertConfiguration.xsd">

    <output>
        <output-file value="C:\Users\Maunish%20Dave\Desktop\Final%20Year%20Project\Traffic%20light%20management%20system\network3.net.xml"/>
    </output>

    <processing>
        <offset.disable-normalization value="true"/>
    </processing>

    <junctions>
        <no-turnarounds value="true"/>
    </junctions>

    <report>
        <aggregate-warnings value="5"/>
    </report>

</configuration>
-->

<net version="1.6" junctionCornerDetail="5" limitTurnSpeed="5.50" xmlns:xsi="http://www.w3.org/2001/XMLSchema-instance" xsi:noNamespaceSchemaLocation="http://sumo.dlr.de/xsd/net_file.xsd">

    <location netOffset="0.00,0.00" convBoundary="-700.00,-100.00,300.00,600.00" origBoundary="10000000000.00,10000000000.00,-10000000000.00,-10000000000.00" projParameter="!"/>

    <edge id=":gneJ0_0" function="internal">
        <lane id=":gneJ0_0_0" index="0" speed="6.51" length="9.03" shape="-501.60,107.20 -501.95,104.75 -503.00,103.00 -504.75,101.95 -507.20,101.60"/>
    </edge>
    <edge id=":gneJ0_1" function="internal">
        <lane id=":gneJ0_1_0" index="0" speed="13.89" length="14.40" shape="-501.60,107.20 -501.60,92.80"/>
    </edge>
    <edge id=":gneJ0_2" function="internal">
        <lane id=":gneJ0_2_0" index="0" speed="8.00" length="5.93" shape="-501.60,107.20 -501.05,103.35 -500.00,101.60"/>
    </edge>
    <edge id=":gneJ0_12" function="internal">
        <lane id=":gneJ0_12_0" index="0" speed="8.00" length="8.26" shape="-500.00,101.60 -499.40,100.60 -496.65,98.95 -492.80,98.40"/>
    </edge>
    <edge id=":gneJ0_3" function="internal">
        <lane id=":gneJ0_3_0" index="0" speed="6.51" length="9.03" shape="-492.80,101.60 -495.25,101.95 -497.00,103.00 -498.05,104.75 -498.40,107.20"/>
    </edge>
    <edge id=":gneJ0_4" function="internal">
        <lane id=":gneJ0_4_0" index="0" speed="13.89" length="14.40" shape="-492.80,101.60 -507.20,101.60"/>
    </edge>
    <edge id=":gneJ0_5" function="internal">
        <lane id=":gneJ0_5_0" index="0" speed="8.00" length="5.93" shape="-492.80,101.60 -496.65,101.05 -498.40,100.00"/>
    </edge>
    <edge id=":gneJ0_13" function="internal">
        <lane id=":gneJ0_13_0" index="0" speed="8.00" length="8.26" shape="-498.40,100.00 -499.40,99.40 -501.05,96.65 -501.60,92.80"/>
    </edge>
    <edge id=":gneJ0_6" function="internal">
        <lane id=":gneJ0_6_0" index="0" speed="6.51" length="9.03" shape="-498.40,92.80 -498.05,95.25 -497.00,97.00 -495.25,98.05 -492.80,98.40"/>
    </edge>
    <edge id=":gneJ0_7" function="internal">
        <lane id=":gneJ0_7_0" index="0" speed="13.89" length="14.40" shape="-498.40,92.80 -498.40,107.20"/>
    </edge>
    <edge id=":gneJ0_8" function="internal">
        <lane id=":gneJ0_8_0" index="0" speed="8.00" length="5.93" shape="-498.40,92.80 -498.95,96.65 -500.00,98.40"/>
    </edge>
    <edge id=":gneJ0_14" function="internal">
        <lane id=":gneJ0_14_0" index="0" speed="8.00" length="8.26" shape="-500.00,98.40 -500.60,99.40 -503.35,101.05 -507.20,101.60"/>
    </edge>
    <edge id=":gneJ0_9" function="internal">
        <lane id=":gneJ0_9_0" index="0" speed="6.51" length="9.03" shape="-507.20,98.40 -504.75,98.05 -503.00,97.00 -501.95,95.25 -501.60,92.80"/>
    </edge>
    <edge id=":gneJ0_10" function="internal">
        <lane id=":gneJ0_10_0" index="0" speed="13.89" length="14.40" shape="-507.20,98.40 -492.80,98.40"/>
    </edge>
    <edge id=":gneJ0_11" function="internal">
        <lane id=":gneJ0_11_0" index="0" speed="8.00" length="5.93" shape="-507.20,98.40 -503.35,98.95 -501.60,100.00"/>
    </edge>
    <edge id=":gneJ0_15" function="internal">
        <lane id=":gneJ0_15_0" index="0" speed="8.00" length="8.26" shape="-501.60,100.00 -500.60,100.60 -498.95,103.35 -498.40,107.20"/>
    </edge>
    <edge id=":gneJ1_0" function="internal">
        <lane id=":gneJ1_0_0" index="0" speed="13.89" length="0.10" shape="-400.00,101.60 -400.00,101.60"/>
    </edge>
    <edge id=":gneJ1_1" function="internal">
        <lane id=":gneJ1_1_0" index="0" speed="13.89" length="0.10" shape="-400.00,98.40 -400.00,98.40"/>
    </edge>
    <edge id=":gneJ12_0" function="internal">
        <lane id=":gneJ12_0_0" index="0" speed="13.89" length="0.10" shape="200.00,501.60 200.00,501.60"/>
    </edge>
    <edge id=":gneJ12_1" function="internal">
        <lane id=":gneJ12_1_0" index="0" speed="13.89" length="0.10" shape="200.00,498.40 200.00,498.40"/>
    </edge>
    <edge id=":gneJ15_0" function="internal">
        <lane id=":gneJ15_0_0" index="0" speed="3.90" length="2.58" shape="-301.60,503.20 -301.70,502.50 -302.00,502.00 -302.50,501.70 -303.20,501.60"/>
    </edge>
    <edge id=":gneJ15_1" function="internal">
        <lane id=":gneJ15_1_0" index="0" speed="6.08" length="7.74" shape="-303.20,498.40 -301.10,498.70 -299.60,499.60 -298.70,501.10 -298.40,503.20"/>
    </edge>
    <edge id=":gneJ16_0" function="internal">
        <lane id=":gneJ16_0_0" index="0" speed="6.08" length="7.74" shape="-296.80,601.60 -298.90,601.30 -300.40,600.40 -301.30,598.90 -301.60,596.80"/>
    </edge>
    <edge id=":gneJ16_1" function="internal">
        <lane id=":gneJ16_1_0" index="0" speed="3.90" length="2.58" shape="-298.40,596.80 -298.30,597.50 -298.00,598.00 -297.50,598.30 -296.80,598.40"/>
    </edge>
    <edge id=":gneJ17_0" function="internal">
        <lane id=":gneJ17_0_0" index="0" speed="6.08" length="7.74" shape="101.60,596.80 101.30,598.90 100.40,600.40 98.90,601.30 96.80,601.60"/>
    </edge>
    <edge id=":gneJ17_1" function="internal">
        <lane id=":gneJ17_1_0" index="0" speed="3.90" length="2.58" shape="96.80,598.40 97.50,598.30 98.00,598.00 98.30,597.50 98.40,596.80"/>
    </edge>
    <edge id=":gneJ2_0" function="internal">
        <lane id=":gneJ2_0_0" index="0" speed="3.90" length="2.58" shape="-101.60,103.20 -101.70,102.50 -102.00,102.00 -102.50,101.70 -103.20,101.60"/>
    </edge>
    <edge id=":gneJ2_1" function="internal">
        <lane id=":gneJ2_1_0" index="0" speed="6.08" length="7.74" shape="-103.20,98.40 -101.10,98.70 -99.60,99.60 -98.70,101.10 -98.40,103.20"/>
    </edge>
    <edge id=":gneJ3_0" function="internal">
        <lane id=":gneJ3_0_0" index="0" speed="6.51" length="9.03" shape="-101.60,307.20 -101.95,304.75 -103.00,303.00 -104.75,301.95 -107.20,301.60"/>
    </edge>
    <edge id=":gneJ3_1" function="internal">
        <lane id=":gneJ3_1_0" index="0" speed="13.89" length="14.40" shape="-101.60,307.20 -101.60,292.80"/>
    </edge>
    <edge id=":gneJ3_2" function="internal">
        <lane id=":gneJ3_2_0" index="0" speed="8.00" length="5.93" shape="-101.60,307.20 -101.05,303.35 -100.00,301.60"/>
    </edge>
    <edge id=":gneJ3_12" function="internal">
        <lane id=":gneJ3_12_0" index="0" speed="8.00" length="8.26" shape="-100.00,301.60 -99.40,300.60 -96.65,298.95 -92.80,298.40"/>
    </edge>
    <edge id=":gneJ3_3" function="internal">
        <lane id=":gneJ3_3_0" index="0" speed="6.51" length="9.03" shape="-92.80,301.60 -95.25,301.95 -97.00,303.00 -98.05,304.75 -98.40,307.20"/>
    </edge>
    <edge id=":gneJ3_4" function="internal">
        <lane id=":gneJ3_4_0" index="0" speed="13.89" length="14.40" shape="-92.80,301.60 -107.20,301.60"/>
    </edge>
    <edge id=":gneJ3_5" function="internal">
        <lane id=":gneJ3_5_0" index="0" speed="8.00" length="5.93" shape="-92.80,301.60 -96.65,301.05 -98.40,300.00"/>
    </edge>
    <edge id=":gneJ3_13" function="internal">
        <lane id=":gneJ3_13_0" index="0" speed="8.00" length="8.26" shape="-98.40,300.00 -99.40,299.40 -101.05,296.65 -101.60,292.80"/>
    </edge>
    <edge id=":gneJ3_6" function="internal">
        <lane id=":gneJ3_6_0" index="0" speed="6.51" length="9.03" shape="-98.40,292.80 -98.05,295.25 -97.00,297.00 -95.25,298.05 -92.80,298.40"/>
    </edge>
    <edge id=":gneJ3_7" function="internal">
        <lane id=":gneJ3_7_0" index="0" speed="13.89" length="14.40" shape="-98.40,292.80 -98.40,307.20"/>
    </edge>
    <edge id=":gneJ3_8" function="internal">
        <lane id=":gneJ3_8_0" index="0" speed="8.00" length="5.93" shape="-98.40,292.80 -98.95,296.65 -100.00,298.40"/>
    </edge>
    <edge id=":gneJ3_14" function="internal">
        <lane id=":gneJ3_14_0" index="0" speed="8.00" length="8.26" shape="-100.00,298.40 -100.60,299.40 -103.35,301.05 -107.20,301.60"/>
    </edge>
    <edge id=":gneJ3_9" function="internal">
        <lane id=":gneJ3_9_0" index="0" speed="6.51" length="9.03" shape="-107.20,298.40 -104.75,298.05 -103.00,297.00 -101.95,295.25 -101.60,292.80"/>
    </edge>
    <edge id=":gneJ3_10" function="internal">
        <lane id=":gneJ3_10_0" index="0" speed="13.89" length="14.40" shape="-107.20,298.40 -92.80,298.40"/>
    </edge>
    <edge id=":gneJ3_11" function="internal">
        <lane id=":gneJ3_11_0" index="0" speed="8.00" length="5.93" shape="-107.20,298.40 -103.35,298.95 -101.60,300.00"/>
    </edge>
    <edge id=":gneJ3_15" function="internal">
        <lane id=":gneJ3_15_0" index="0" speed="8.00" length="8.26" shape="-101.60,300.00 -100.60,300.60 -98.95,303.35 -98.40,307.20"/>
    </edge>
    <edge id=":gneJ4_0" function="internal">
        <lane id=":gneJ4_0_0" index="0" speed="6.51" length="9.03" shape="-501.60,307.20 -501.95,304.75 -503.00,303.00 -504.75,301.95 -507.20,301.60"/>
    </edge>
    <edge id=":gneJ4_1" function="internal">
        <lane id=":gneJ4_1_0" index="0" speed="13.89" length="14.40" shape="-501.60,307.20 -501.60,292.80"/>
    </edge>
    <edge id=":gneJ4_2" function="internal">
        <lane id=":gneJ4_2_0" index="0" speed="8.00" length="5.93" shape="-501.60,307.20 -501.05,303.35 -500.00,301.60"/>
    </edge>
    <edge id=":gneJ4_12" function="internal">
        <lane id=":gneJ4_12_0" index="0" speed="8.00" length="8.26" shape="-500.00,301.60 -499.40,300.60 -496.65,298.95 -492.80,298.40"/>
    </edge>
    <edge id=":gneJ4_3" function="internal">
        <lane id=":gneJ4_3_0" index="0" speed="6.51" length="9.03" shape="-492.80,301.60 -495.25,301.95 -497.00,303.00 -498.05,304.75 -498.40,307.20"/>
    </edge>
    <edge id=":gneJ4_4" function="internal">
        <lane id=":gneJ4_4_0" index="0" speed="13.89" length="14.40" shape="-492.80,301.60 -507.20,301.60"/>
    </edge>
    <edge id=":gneJ4_5" function="internal">
        <lane id=":gneJ4_5_0" index="0" speed="8.00" length="5.93" shape="-492.80,301.60 -496.65,301.05 -498.40,300.00"/>
    </edge>
    <edge id=":gneJ4_13" function="internal">
        <lane id=":gneJ4_13_0" index="0" speed="8.00" length="8.26" shape="-498.40,300.00 -499.40,299.40 -501.05,296.65 -501.60,292.80"/>
    </edge>
    <edge id=":gneJ4_6" function="internal">
        <lane id=":gneJ4_6_0" index="0" speed="6.51" length="9.03" shape="-498.40,292.80 -498.05,295.25 -497.00,297.00 -495.25,298.05 -492.80,298.40"/>
    </edge>
    <edge id=":gneJ4_7" function="internal">
        <lane id=":gneJ4_7_0" index="0" speed="13.89" length="14.40" shape="-498.40,292.80 -498.40,307.20"/>
    </edge>
    <edge id=":gneJ4_8" function="internal">
        <lane id=":gneJ4_8_0" index="0" speed="8.00" length="5.93" shape="-498.40,292.80 -498.95,296.65 -500.00,298.40"/>
    </edge>
    <edge id=":gneJ4_14" function="internal">
        <lane id=":gneJ4_14_0" index="0" speed="8.00" length="8.26" shape="-500.00,298.40 -500.60,299.40 -503.35,301.05 -507.20,301.60"/>
    </edge>
    <edge id=":gneJ4_9" function="internal">
        <lane id=":gneJ4_9_0" index="0" speed="6.51" length="9.03" shape="-507.20,298.40 -504.75,298.05 -503.00,297.00 -501.95,295.25 -501.60,292.80"/>
    </edge>
    <edge id=":gneJ4_10" function="internal">
        <lane id=":gneJ4_10_0" index="0" speed="13.89" length="14.40" shape="-507.20,298.40 -492.80,298.40"/>
    </edge>
    <edge id=":gneJ4_11" function="internal">
        <lane id=":gneJ4_11_0" index="0" speed="8.00" length="5.93" shape="-507.20,298.40 -503.35,298.95 -501.60,300.00"/>
    </edge>
    <edge id=":gneJ4_15" function="internal">
        <lane id=":gneJ4_15_0" index="0" speed="8.00" length="8.26" shape="-501.60,300.00 -500.60,300.60 -498.95,303.35 -498.40,307.20"/>
    </edge>
    <edge id=":gneJ5_0" function="internal">
        <lane id=":gneJ5_0_0" index="0" speed="3.90" length="2.58" shape="98.40,303.20 98.30,302.50 98.00,302.00 97.50,301.70 96.80,301.60"/>
    </edge>
    <edge id=":gneJ5_1" function="internal">
        <lane id=":gneJ5_1_0" index="0" speed="6.08" length="7.74" shape="96.80,298.40 98.90,298.70 100.40,299.60 101.30,301.10 101.60,303.20"/>
    </edge>
    <edge id=":gneJ6_0" function="internal">
        <lane id=":gneJ6_0_0" index="0" speed="6.08" length="7.74" shape="103.20,401.60 101.10,401.30 99.60,400.40 98.70,398.90 98.40,396.80"/>
    </edge>
    <edge id=":gneJ6_1" function="internal">
        <lane id=":gneJ6_1_0" index="0" speed="3.90" length="2.58" shape="101.60,396.80 101.70,397.50 102.00,398.00 102.50,398.30 103.20,398.40"/>
    </edge>
    <edge id=":gneJ7_0" function="internal">
        <lane id=":gneJ7_0_0" index="0" speed="6.08" length="7.74" shape="-96.80,501.60 -98.90,501.30 -100.40,500.40 -101.30,498.90 -101.60,496.80"/>
    </edge>
    <edge id=":gneJ7_1" function="internal">
        <lane id=":gneJ7_1_0" index="0" speed="3.90" length="2.58" shape="-98.40,496.80 -98.30,497.50 -98.00,498.00 -97.50,498.30 -96.80,498.40"/>
    </edge>
    <edge id=":gneJ8_0" function="internal">
        <lane id=":gneJ8_0_0" index="0" speed="6.08" length="7.74" shape="-496.80,501.60 -498.90,501.30 -500.40,500.40 -501.30,498.90 -501.60,496.80"/>
    </edge>
    <edge id=":gneJ8_1" function="internal">
        <lane id=":gneJ8_1_0" index="0" speed="3.90" length="2.58" shape="-498.40,496.80 -498.30,497.50 -498.00,498.00 -497.50,498.30 -496.80,498.40"/>
    </edge>

    <edge id="gneE0" from="gneJ0" to="gneJ1" priority="-1">
        <lane id="gneE0_0" index="0" speed="13.89" length="92.80" shape="-492.80,98.40 -400.00,98.40"/>
    </edge>
    <edge id="gneE1" from="gneJ1" to="gneJ0" priority="-1">
        <lane id="gneE1_0" index="0" speed="13.89" length="92.80" shape="-400.00,101.60 -492.80,101.60"/>
    </edge>
    <edge id="gneE10" from="gneJ3" to="gneJ5" priority="-1">
        <lane id="gneE10_0" index="0" speed="13.89" length="189.60" shape="-92.80,298.40 96.80,298.40"/>
    </edge>
    <edge id="gneE11" from="gneJ5" to="gneJ3" priority="-1">
        <lane id="gneE11_0" index="0" speed="13.89" length="189.60" shape="96.80,301.60 -92.80,301.60"/>
    </edge>
    <edge id="gneE12" from="gneJ5" to="gneJ6" priority="-1">
        <lane id="gneE12_0" index="0" speed="13.89" length="93.60" shape="101.60,303.20 101.60,396.80"/>
    </edge>
    <edge id="gneE13" from="gneJ6" to="gneJ5" priority="-1">
        <lane id="gneE13_0" index="0" speed="13.89" length="93.60" shape="98.40,396.80 98.40,303.20"/>
    </edge>
    <edge id="gneE14" from="gneJ7" to="gneJ3" priority="-1">
        <lane id="gneE14_0" index="0" speed="13.89" length="189.60" shape="-101.60,496.80 -101.60,307.20"/>
    </edge>
    <edge id="gneE15" from="gneJ3" to="gneJ7" priority="-1">
        <lane id="gneE15_0" index="0" speed="13.89" length="189.60" shape="-98.40,307.20 -98.40,496.80"/>
    </edge>
    <edge id="gneE16" from="gneJ8" to="gneJ4" priority="-1">
        <lane id="gneE16_0" index="0" speed="13.89" length="189.60" shape="-501.60,496.80 -501.60,307.20"/>
    </edge>
    <edge id="gneE17" from="gneJ4" to="gneJ8" priority="-1">
        <lane id="gneE17_0" index="0" speed="13.89" length="189.60" shape="-498.40,307.20 -498.40,496.80"/>
    </edge>
    <edge id="gneE18" from="gneJ4" to="gneJ9" priority="-1">
        <lane id="gneE18_0" index="0" speed="13.89" length="192.80" shape="-507.20,301.60 -700.00,301.60"/>
    </edge>
    <edge id="gneE19" from="gneJ9" to="gneJ4" priority="-1">
        <lane id="gneE19_0" index="0" speed="13.89" length="192.80" shape="-700.00,298.40 -507.20,298.40"/>
    </edge>
    <edge id="gneE2" from="gneJ1" to="gneJ2" priority="-1">
        <lane id="gneE2_0" index="0" speed="13.89" length="296.80" shape="-400.00,98.40 -103.20,98.40"/>
    </edge>
    <edge id="gneE20" from="gneJ0" to="gneJ10" priority="-1">
        <lane id="gneE20_0" index="0" speed="13.89" length="192.80" shape="-507.20,101.60 -700.00,101.60"/>
    </edge>
    <edge id="gneE21" from="gneJ10" to="gneJ0" priority="-1">
        <lane id="gneE21_0" index="0" speed="13.89" length="192.80" shape="-700.00,98.40 -507.20,98.40"/>
    </edge>
    <edge id="gneE22" from="gneJ0" to="gneJ11" priority="-1">
        <lane id="gneE22_0" index="0" speed="13.89" length="192.80" shape="-501.60,92.80 -501.60,-100.00"/>
    </edge>
    <edge id="gneE23" from="gneJ11" to="gneJ0" priority="-1">
        <lane id="gneE23_0" index="0" speed="13.89" length="192.80" shape="-498.40,-100.00 -498.40,92.80"/>
    </edge>
    <edge id="gneE24" from="gneJ7" to="gneJ12" priority="-1">
        <lane id="gneE24_0" index="0" speed="13.89" length="296.80" shape="-96.80,498.40 200.00,498.40"/>
    </edge>
    <edge id="gneE25" from="gneJ12" to="gneJ7" priority="-1">
        <lane id="gneE25_0" index="0" speed="13.89" length="296.80" shape="200.00,501.60 -96.80,501.60"/>
    </edge>
    <edge id="gneE26" from="gneJ6" to="gneJ13" priority="-1">
        <lane id="gneE26_0" index="0" speed="13.89" length="196.80" shape="103.20,398.40 300.00,398.40"/>
    </edge>
    <edge id="gneE27" from="gneJ13" to="gneJ6" priority="-1">
        <lane id="gneE27_0" index="0" speed="13.89" length="196.80" shape="300.00,401.60 103.20,401.60"/>
    </edge>
    <edge id="gneE28" from="gneJ12" to="gneJ14" priority="-1">
        <lane id="gneE28_0" index="0" speed="13.89" length="100.00" shape="200.00,498.40 300.00,498.40"/>
    </edge>
    <edge id="gneE29" from="gneJ14" to="gneJ12" priority="-1">
        <lane id="gneE29_0" index="0" speed="13.89" length="100.00" shape="300.00,501.60 200.00,501.60"/>
    </edge>
    <edge id="gneE3" from="gneJ2" to="gneJ1" priority="-1">
        <lane id="gneE3_0" index="0" speed="13.89" length="296.80" shape="-103.20,101.60 -400.00,101.60"/>
    </edge>
    <edge id="gneE30" from="gneJ8" to="gneJ15" priority="-1">
        <lane id="gneE30_0" index="0" speed="13.89" length="193.60" shape="-496.80,498.40 -303.20,498.40"/>
    </edge>
    <edge id="gneE31" from="gneJ15" to="gneJ8" priority="-1">
        <lane id="gneE31_0" index="0" speed="13.89" length="193.60" shape="-303.20,501.60 -496.80,501.60"/>
    </edge>
    <edge id="gneE32" from="gneJ15" to="gneJ16" priority="-1">
        <lane id="gneE32_0" index="0" speed="13.89" length="93.60" shape="-298.40,503.20 -298.40,596.80"/>
    </edge>
    <edge id="gneE33" from="gneJ16" to="gneJ15" priority="-1">
        <lane id="gneE33_0" index="0" speed="13.89" length="93.60" shape="-301.60,596.80 -301.60,503.20"/>
    </edge>
    <edge id="gneE34" from="gneJ16" to="gneJ17" priority="-1">
        <lane id="gneE34_0" index="0" speed="13.89" length="393.60" shape="-296.80,598.40 96.80,598.40"/>
    </edge>
    <edge id="gneE35" from="gneJ17" to="gneJ16" priority="-1">
        <lane id="gneE35_0" index="0" speed="13.89" length="393.60" shape="96.80,601.60 -296.80,601.60"/>
    </edge>
    <edge id="gneE36" from="gneJ17" to="gneJ18" priority="-1">
        <lane id="gneE36_0" index="0" speed="13.89" length="96.80" shape="98.40,596.80 98.40,500.00"/>
    </edge>
    <edge id="gneE37" from="gneJ18" to="gneJ17" priority="-1">
        <lane id="gneE37_0" index="0" speed="13.89" length="96.80" shape="101.60,500.00 101.60,596.80"/>
    </edge>
    <edge id="gneE4" from="gneJ2" to="gneJ3" priority="-1">
        <lane id="gneE4_0" index="0" speed="13.89" length="189.60" shape="-98.40,103.20 -98.40,292.80"/>
    </edge>
    <edge id="gneE5" from="gneJ3" to="gneJ2" priority="-1">
        <lane id="gneE5_0" index="0" speed="13.89" length="189.60" shape="-101.60,292.80 -101.60,103.20"/>
    </edge>
    <edge id="gneE6" from="gneJ4" to="gneJ3" priority="-1">
        <lane id="gneE6_0" index="0" speed="13.89" length="385.60" shape="-492.80,298.40 -107.20,298.40"/>
    </edge>
    <edge id="gneE7" from="gneJ3" to="gneJ4" priority="-1">
        <lane id="gneE7_0" index="0" speed="13.89" length="385.60" shape="-107.20,301.60 -492.80,301.60"/>
    </edge>
    <edge id="gneE8" from="gneJ4" to="gneJ0" priority="-1">
        <lane id="gneE8_0" index="0" speed="13.89" length="185.60" shape="-501.60,292.80 -501.60,107.20"/>
    </edge>
    <edge id="gneE9" from="gneJ0" to="gneJ4" priority="-1">
        <lane id="gneE9_0" index="0" speed="13.89" length="185.60" shape="-498.40,107.20 -498.40,292.80"/>
    </edge>

    <tlLogic id="gneJ0" type="static" programID="0" offset="0">
        <phase duration="42" state="GGgrrrGGgrrr"/>
        <phase duration="3"  state="yyyrrryyyrrr"/>
        <phase duration="42" state="rrrGGgrrrGGg"/>
        <phase duration="3"  state="rrryyyrrryyy"/>
    </tlLogic>
    <tlLogic id="gneJ3" type="static" programID="0" offset="0">
        <phase duration="42" state="GGgrrrGGgrrr"/>
        <phase duration="3"  state="yyyrrryyyrrr"/>
        <phase duration="42" state="rrrGGgrrrGGg"/>
        <phase duration="3"  state="rrryyyrrryyy"/>
    </tlLogic>
    <tlLogic id="gneJ4" type="static" programID="0" offset="0">
        <phase duration="42" state="GGgrrrGGgrrr"/>
        <phase duration="3"  state="yyyrrryyyrrr"/>
        <phase duration="42" state="rrrGGgrrrGGg"/>
        <phase duration="3"  state="rrryyyrrryyy"/>
    </tlLogic>

    <junction id="gneJ0" type="traffic_light" x="-500.00" y="100.00" incLanes="gneE8_0 gneE1_0 gneE23_0 gneE21_0" intLanes=":gneJ0_0_0 :gneJ0_1_0 :gneJ0_12_0 :gneJ0_3_0 :gneJ0_4_0 :gneJ0_13_0 :gneJ0_6_0 :gneJ0_7_0 :gneJ0_14_0 :gneJ0_9_0 :gneJ0_10_0 :gneJ0_15_0" shape="-503.20,107.20 -496.80,107.20 -496.36,104.98 -495.80,104.20 -495.02,103.64 -494.02,103.31 -492.80,103.20 -492.80,96.80 -495.02,96.36 -495.80,95.80 -496.36,95.02 -496.69,94.02 -496.80,92.80 -503.20,92.80 -503.64,95.02 -504.20,95.80 -504.98,96.36 -505.98,96.69 -507.20,96.80 -507.20,103.20 -504.98,103.64 -504.20,104.20 -503.64,104.98 -503.31,105.98">
        <request index="0"  response="000000000000" foes="000100010000" cont="0"/>
        <request index="1"  response="100000100000" foes="111100110000" cont="0"/>
        <request index="2"  response="100011100000" foes="110011110000" cont="1"/>
        <request index="3"  response="000010000000" foes="100010000000" cont="0"/>
        <request index="4"  response="000110000111" foes="100110000111" cont="0"/>
        <request index="5"  response="011110000110" foes="011110000110" cont="1"/>
        <request index="6"  response="000000000000" foes="010000000100" cont="0"/>
        <request index="7"  response="100000100000" foes="110000111100" cont="0"/>
        <request index="8"  response="100000100011" foes="110000110011" cont="1"/>
        <request index="9"  response="000000000010" foes="000000100010" cont="0"/>
        <request index="10" response="000111000110" foes="000111100110" cont="0"/>
        <request index="11" response="000110011110" foes="000110011110" cont="1"/>
    </junction>
    <junction id="gneJ1" type="priority" x="-400.00" y="100.00" incLanes="gneE3_0 gneE0_0" intLanes=":gneJ1_0_0 :gneJ1_1_0" shape="-400.00,103.20 -400.00,96.80 -400.00,103.20">
        <request index="0" response="00" foes="00" cont="0"/>
        <request index="1" response="00" foes="00" cont="0"/>
    </junction>
    <junction id="gneJ10" type="dead_end" x="-700.00" y="100.00" incLanes="gneE20_0" intLanes="" shape="-700.00,100.00 -700.00,103.20 -700.00,100.00"/>
    <junction id="gneJ11" type="dead_end" x="-500.00" y="-100.00" incLanes="gneE22_0" intLanes="" shape="-500.00,-100.00 -503.20,-100.00 -500.00,-100.00"/>
    <junction id="gneJ12" type="priority" x="200.00" y="500.00" incLanes="gneE29_0 gneE24_0" intLanes=":gneJ12_0_0 :gneJ12_1_0" shape="200.00,503.20 200.00,496.80 200.00,503.20">
        <request index="0" response="00" foes="00" cont="0"/>
        <request index="1" response="00" foes="00" cont="0"/>
    </junction>
    <junction id="gneJ13" type="dead_end" x="300.00" y="400.00" incLanes="gneE26_0" intLanes="" shape="300.00,400.00 300.00,396.80 300.00,400.00"/>
    <junction id="gneJ14" type="dead_end" x="300.00" y="500.00" incLanes="gneE28_0" intLanes="" shape="300.00,500.00 300.00,496.80 300.00,500.00"/>
    <junction id="gneJ15" type="priority" x="-300.00" y="500.00" incLanes="gneE33_0 gneE30_0" intLanes=":gneJ15_0_0 :gneJ15_1_0" shape="-303.20,503.20 -296.80,503.20 -297.51,499.64 -298.40,498.40 -299.64,497.51 -301.24,496.98 -303.20,496.80">
        <request index="0" response="00" foes="00" cont="0"/>
        <request index="1" response="00" foes="00" cont="0"/>
    </junction>
    <junction id="gneJ16" type="priority" x="-300.00" y="600.00" incLanes="gneE35_0 gneE32_0" intLanes=":gneJ16_0_0 :gneJ16_1_0" shape="-296.80,603.20 -296.80,596.80 -303.20,596.80 -302.49,600.36 -301.60,601.60 -300.36,602.49 -298.76,603.02">
        <request index="0" response="00" foes="00" cont="0"/>
        <request index="1" response="00" foes="00" cont="0"/>
    </junction>
    <junction id="gneJ17" type="priority" x="100.00" y="600.00" incLanes="gneE37_0 gneE34_0" intLanes=":gneJ17_0_0 :gneJ17_1_0" shape="103.20,596.80 96.80,596.80 96.80,603.20 100.36,602.49 101.60,601.60 102.49,600.36 103.02,598.76">
        <request index="0" response="00" foes="00" cont="0"/>
        <request index="1" response="00" foes="00" cont="0"/>
    </junction>
    <junction id="gneJ18" type="dead_end" x="100.00" y="500.00" incLanes="gneE36_0" intLanes="" shape="100.00,500.00 96.80,500.00 100.00,500.00"/>
    <junction id="gneJ2" type="priority" x="-100.00" y="100.00" incLanes="gneE5_0 gneE2_0" intLanes=":gneJ2_0_0 :gneJ2_1_0" shape="-103.20,103.20 -96.80,103.20 -97.51,99.64 -98.40,98.40 -99.64,97.51 -101.24,96.98 -103.20,96.80">
        <request index="0" response="00" foes="00" cont="0"/>
        <request index="1" response="00" foes="00" cont="0"/>
    </junction>
    <junction id="gneJ3" type="traffic_light" x="-100.00" y="300.00" incLanes="gneE14_0 gneE11_0 gneE4_0 gneE6_0" intLanes=":gneJ3_0_0 :gneJ3_1_0 :gneJ3_12_0 :gneJ3_3_0 :gneJ3_4_0 :gneJ3_13_0 :gneJ3_6_0 :gneJ3_7_0 :gneJ3_14_0 :gneJ3_9_0 :gneJ3_10_0 :gneJ3_15_0" shape="-103.20,307.20 -96.80,307.20 -96.36,304.98 -95.80,304.20 -95.02,303.64 -94.02,303.31 -92.80,303.20 -92.80,296.80 -95.02,296.36 -95.80,295.80 -96.36,295.02 -96.69,294.02 -96.80,292.80 -103.20,292.80 -103.64,295.02 -104.20,295.80 -104.98,296.36 -105.98,296.69 -107.20,296.80 -107.20,303.20 -104.98,303.64 -104.20,304.20 -103.64,304.98 -103.31,305.98">
        <request index="0"  response="000000000000" foes="000100010000" cont="0"/>
        <request index="1"  response="100000100000" foes="111100110000" cont="0"/>
        <request index="2"  response="100011100000" foes="110011110000" cont="1"/>
        <request index="3"  response="000010000000" foes="100010000000" cont="0"/>
        <request index="4"  response="000110000111" foes="100110000111" cont="0"/>
        <request index="5"  response="011110000110" foes="011110000110" cont="1"/>
        <request index="6"  response="000000000000" foes="010000000100" cont="0"/>
        <request index="7"  response="100000100000" foes="110000111100" cont="0"/>
        <request index="8"  response="100000100011" foes="110000110011" cont="1"/>
        <request index="9"  response="000000000010" foes="000000100010" cont="0"/>
        <request index="10" response="000111000110" foes="000111100110" cont="0"/>
        <request index="11" response="000110011110" foes="000110011110" cont="1"/>
    </junction>
    <junction id="gneJ4" type="traffic_light" x="-500.00" y="300.00" incLanes="gneE16_0 gneE7_0 gneE9_0 gneE19_0" intLanes=":gneJ4_0_0 :gneJ4_1_0 :gneJ4_12_0 :gneJ4_3_0 :gneJ4_4_0 :gneJ4_13_0 :gneJ4_6_0 :gneJ4_7_0 :gneJ4_14_0 :gneJ4_9_0 :gneJ4_10_0 :gneJ4_15_0" shape="-503.20,307.20 -496.80,307.20 -496.36,304.98 -495.80,304.20 -495.02,303.64 -494.02,303.31 -492.80,303.20 -492.80,296.80 -495.02,296.36 -495.80,295.80 -496.36,295.02 -496.69,294.02 -496.80,292.80 -503.20,292.80 -503.64,295.02 -504.20,295.80 -504.98,296.36 -505.98,296.69 -507.20,296.80 -507.20,303.20 -504.98,303.64 -504.20,304.20 -503.64,304.98 -503.31,305.98">
        <request index="0"  response="000000000000" foes="000100010000" cont="0"/>
        <request index="1"  response="100000100000" foes="111100110000" cont="0"/>
        <request index="2"  response="100011100000" foes="110011110000" cont="1"/>
        <request index="3"  response="000010000000" foes="100010000000" cont="0"/>
        <request index="4"  response="000110000111" foes="100110000111" cont="0"/>
        <request index="5"  response="011110000110" foes="011110000110" cont="1"/>
        <request index="6"  response="000000000000" foes="010000000100" cont="0"/>
        <request index="7"  response="100000100000" foes="110000111100" cont="0"/>
        <request index="8"  response="100000100011" foes="110000110011" cont="1"/>
        <request index="9"  response="000000000010" foes="000000100010" cont="0"/>
        <request index="10" response="000111000110" foes="000111100110" cont="0"/>
        <request index="11" response="000110011110" foes="000110011110" cont="1"/>
    </junction>